MODEL 1
REMARK VINA RESULT:      -9.9      0.000      0.000
REMARK  Name = 448994
REMARK  9 active torsions:
REMARK  status: ('A' for Active; 'I' for Inactive)
REMARK    1  A    between atoms: N_1  and  C_10
REMARK    2  A    between atoms: C_11  and  C_19
REMARK    3  A    between atoms: N_20  and  C_23
REMARK    4  A    between atoms: C_22  and  O_28
REMARK    5  A    between atoms: O_28  and  C_29
REMARK    6  A    between atoms: C_29  and  C_30
REMARK    7  A    between atoms: C_30  and  O_31
REMARK    8  A    between atoms: C_30  and  C_33
REMARK    9  A    between atoms: C_33  and  N_34
REMARK                            x       y       z     vdW  Elec       q    Type
REMARK                         _______ _______ _______ _____ _____    ______ ____
ROOT
ATOM      1  N   UNL     1      32.498  -9.663 -23.109  0.00  0.00    -0.300 N 
ATOM      2  N   UNL     1      31.548 -11.360 -19.448  0.00  0.00    -0.233 NA
ATOM      3  N   UNL     1      31.762  -9.417 -20.857  0.00  0.00    -0.233 NA
ATOM      4  C   UNL     1      31.962 -12.114 -20.488  0.00  0.00    +0.113 C 
ATOM      5  C   UNL     1      32.170 -10.231 -21.854  0.00  0.00    +0.113 C 
ATOM      6  C   UNL     1      32.291 -11.600 -21.725  0.00  0.00    +0.122 C 
ATOM      7  C   UNL     1      31.472 -10.039 -19.699  0.00  0.00    +0.252 C 
ATOM      8  H   UNL     1      31.993  -8.844 -23.318  0.00  0.00    +0.153 HD
ATOM      9  N   UNL     1      32.071 -13.508 -20.314  0.00  0.00    -0.301 N 
ATOM     10  H   UNL     1      31.433 -13.876 -19.661  0.00  0.00    +0.153 HD
ENDROOT
BRANCH   1  12
ATOM     11  F   UNL     1      34.887  -8.293 -23.493  0.00  0.00    -0.203 F 
ATOM     12  C   UNL     1      33.403 -10.042 -24.113  0.00  0.00    +0.077 C 
ATOM     13  C   UNL     1      34.009 -11.504 -25.939  0.00  0.00    +0.073 C 
ATOM     14  C   UNL     1      33.110 -11.126 -24.940  0.00  0.00    +0.021 C 
ATOM     15  C   UNL     1      34.595  -9.337 -24.284  0.00  0.00    +0.153 C 
ATOM     16  C   UNL     1      35.200 -10.799 -26.109  0.00  0.00    +0.006 C 
ATOM     17  C   UNL     1      35.493  -9.715 -25.282  0.00  0.00    +0.031 C 
BRANCH  13  21
ATOM     18  F   UNL     1      33.609 -13.852 -26.159  0.00  0.00    -0.166 F 
ATOM     19  F   UNL     1      32.507 -12.538 -27.486  0.00  0.00    -0.166 F 
ATOM     20  F   UNL     1      34.636 -12.852 -27.794  0.00  0.00    -0.166 F 
ATOM     21  C   UNL     1      33.695 -12.662 -26.824  0.00  0.00    +0.419 C 
ENDBRANCH  13  21
ENDBRANCH   1  12
BRANCH   9  23
ATOM     22  C   UNL     1      34.586 -16.397 -22.037  0.00  0.00    +0.139 C 
ATOM     23  C   UNL     1      32.915 -14.478 -20.892  0.00  0.00    +0.049 C 
ATOM     24  C   UNL     1      34.646 -16.148 -20.665  0.00  0.00    +0.038 C 
ATOM     25  C   UNL     1      33.691 -15.686 -22.837  0.00  0.00    +0.038 C 
ATOM     26  C   UNL     1      33.810 -15.190 -20.093  0.00  0.00    +0.018 C 
ATOM     27  C   UNL     1      32.856 -14.726 -22.264  0.00  0.00    +0.018 C 
BRANCH  22  28
ATOM     28  O   UNL     1      35.406 -17.339 -22.598  0.00  0.00    -0.473 OA
BRANCH  28  29
ATOM     29  C   UNL     1      36.015 -18.270 -21.709  0.00  0.00    +0.232 C 
BRANCH  29  30
ATOM     30  C   UNL     1      35.334 -19.627 -21.875  0.00  0.00    +0.133 C 
BRANCH  30  31
ATOM     31  O   UNL     1      34.762 -19.693 -23.184  0.00  0.00    -0.383 OA
ATOM     32  H   UNL     1      35.136 -20.449 -23.663  0.00  0.00    +0.210 HD
ENDBRANCH  30  31
BRANCH  30  33
ATOM     33  C   UNL     1      34.220 -19.874 -20.855  0.00  0.00    -0.044 C 
BRANCH  33  34
ATOM     34  N   UNL     1      34.672 -20.697 -19.740  0.00  0.00    +0.386 N 
ATOM     35  C   UNL     1      33.631 -21.649 -19.345  0.00  0.00    -0.101 C 
ATOM     36  C   UNL     1      35.902 -21.410 -20.090  0.00  0.00    -0.101 C 
ATOM     37  H   UNL     1      34.866 -20.083 -18.951  0.00  0.00    -0.080 HD
ENDBRANCH  33  34
ENDBRANCH  30  33
ENDBRANCH  29  30
ENDBRANCH  28  29
ENDBRANCH  22  28
ENDBRANCH   9  23
TORSDOF 9
ENDMDL
MODEL 2
REMARK VINA RESULT:      -9.5      1.512      1.995
REMARK  Name = 448994
REMARK  9 active torsions:
REMARK  status: ('A' for Active; 'I' for Inactive)
REMARK    1  A    between atoms: N_1  and  C_10
REMARK    2  A    between atoms: C_11  and  C_19
REMARK    3  A    between atoms: N_20  and  C_23
REMARK    4  A    between atoms: C_22  and  O_28
REMARK    5  A    between atoms: O_28  and  C_29
REMARK    6  A    between atoms: C_29  and  C_30
REMARK    7  A    between atoms: C_30  and  O_31
REMARK    8  A    between atoms: C_30  and  C_33
REMARK    9  A    between atoms: C_33  and  N_34
REMARK                            x       y       z     vdW  Elec       q    Type
REMARK                         _______ _______ _______ _____ _____    ______ ____
ROOT
ATOM      1  N   UNL     1      32.150  -8.661 -21.711  0.00  0.00    -0.300 N 
ATOM      2  N   UNL     1      31.334 -11.448 -18.753  0.00  0.00    -0.233 NA
ATOM      3  N   UNL     1      31.463  -9.156 -19.485  0.00  0.00    -0.233 NA
ATOM      4  C   UNL     1      31.742 -11.825 -19.983  0.00  0.00    +0.113 C 
ATOM      5  C   UNL     1      31.868  -9.604 -20.693  0.00  0.00    +0.113 C 
ATOM      6  C   UNL     1      32.027 -10.940 -21.001  0.00  0.00    +0.122 C 
ATOM      7  C   UNL     1      31.218 -10.118 -18.576  0.00  0.00    +0.252 C 
ATOM      8  H   UNL     1      31.619  -7.834 -21.646  0.00  0.00    +0.153 HD
ATOM      9  N   UNL     1      31.890 -13.199 -20.257  0.00  0.00    -0.301 N 
ATOM     10  H   UNL     1      31.279 -13.773 -19.743  0.00  0.00    +0.153 HD
ENDROOT
BRANCH   1  12
ATOM     11  F   UNL     1      33.479  -6.358 -22.525  0.00  0.00    -0.203 F 
ATOM     12  C   UNL     1      33.040  -8.677 -22.797  0.00  0.00    +0.077 C 
ATOM     13  C   UNL     1      34.155  -9.884 -24.568  0.00  0.00    +0.073 C 
ATOM     14  C   UNL     1      33.271  -9.866 -23.489  0.00  0.00    +0.021 C 
ATOM     15  C   UNL     1      33.694  -7.507 -23.184  0.00  0.00    +0.153 C 
ATOM     16  C   UNL     1      34.808  -8.714 -24.955  0.00  0.00    +0.006 C 
ATOM     17  C   UNL     1      34.577  -7.525 -24.263  0.00  0.00    +0.031 C 
BRANCH  13  21
ATOM     18  F   UNL     1      33.360 -11.535 -26.106  0.00  0.00    -0.166 F 
ATOM     19  F   UNL     1      35.484 -11.101 -26.141  0.00  0.00    -0.166 F 
ATOM     20  F   UNL     1      34.632 -12.212 -24.477  0.00  0.00    -0.166 F 
ATOM     21  C   UNL     1      34.402 -11.155 -25.309  0.00  0.00    +0.419 C 
ENDBRANCH  13  21
ENDBRANCH   1  12
BRANCH   9  23
ATOM     22  C   UNL     1      34.436 -15.322 -22.838  0.00  0.00    +0.139 C 
ATOM     23  C   UNL     1      32.744 -13.912 -21.124  0.00  0.00    +0.049 C 
ATOM     24  C   UNL     1      34.714 -15.267 -21.472  0.00  0.00    +0.038 C 
ATOM     25  C   UNL     1      33.312 -14.670 -23.347  0.00  0.00    +0.038 C 
ATOM     26  C   UNL     1      33.868 -14.563 -20.615  0.00  0.00    +0.018 C 
ATOM     27  C   UNL     1      32.467 -13.965 -22.490  0.00  0.00    +0.018 C 
BRANCH  22  28
ATOM     28  O   UNL     1      35.266 -16.013 -23.679  0.00  0.00    -0.473 OA
BRANCH  28  29
ATOM     29  C   UNL     1      34.705 -17.137 -24.351  0.00  0.00    +0.232 C 
BRANCH  29  30
ATOM     30  C   UNL     1      35.135 -18.409 -23.625  0.00  0.00    +0.133 C 
BRANCH  30  31
ATOM     31  O   UNL     1      35.113 -19.495 -24.556  0.00  0.00    -0.383 OA
ATOM     32  H   UNL     1      34.476 -19.304 -25.261  0.00  0.00    +0.210 HD
ENDBRANCH  30  31
BRANCH  30  33
ATOM     33  C   UNL     1      34.226 -18.771 -22.448  0.00  0.00    -0.044 C 
BRANCH  33  34
ATOM     34  N   UNL     1      34.965 -18.876 -21.197  0.00  0.00    +0.386 N 
ATOM     35  C   UNL     1      34.741 -20.181 -20.570  0.00  0.00    -0.101 C 
ATOM     36  C   UNL     1      36.397 -18.663 -21.424  0.00  0.00    -0.101 C 
ATOM     37  H   UNL     1      34.626 -18.151 -20.567  0.00  0.00    -0.080 HD
ENDBRANCH  33  34
ENDBRANCH  30  33
ENDBRANCH  29  30
ENDBRANCH  28  29
ENDBRANCH  22  28
ENDBRANCH   9  23
TORSDOF 9
ENDMDL
MODEL 3
REMARK VINA RESULT:      -9.4      3.333      5.241
REMARK  Name = 448994
REMARK  9 active torsions:
REMARK  status: ('A' for Active; 'I' for Inactive)
REMARK    1  A    between atoms: N_1  and  C_10
REMARK    2  A    between atoms: C_11  and  C_19
REMARK    3  A    between atoms: N_20  and  C_23
REMARK    4  A    between atoms: C_22  and  O_28
REMARK    5  A    between atoms: O_28  and  C_29
REMARK    6  A    between atoms: C_29  and  C_30
REMARK    7  A    between atoms: C_30  and  O_31
REMARK    8  A    between atoms: C_30  and  C_33
REMARK    9  A    between atoms: C_33  and  N_34
REMARK                            x       y       z     vdW  Elec       q    Type
REMARK                         _______ _______ _______ _____ _____    ______ ____
ROOT
ATOM      1  N   UNL     1      32.729 -12.354 -24.190  0.00  0.00    -0.300 N 
ATOM      2  N   UNL     1      33.740 -15.238 -26.992  0.00  0.00    -0.233 NA
ATOM      3  N   UNL     1      32.698 -13.137 -26.440  0.00  0.00    -0.233 NA
ATOM      4  C   UNL     1      34.080 -15.369 -25.693  0.00  0.00    +0.113 C 
ATOM      5  C   UNL     1      33.069 -13.332 -25.157  0.00  0.00    +0.113 C 
ATOM      6  C   UNL     1      33.768 -14.440 -24.721  0.00  0.00    +0.122 C 
ATOM      7  C   UNL     1      33.060 -14.115 -27.291  0.00  0.00    +0.252 C 
ATOM      8  H   UNL     1      32.674 -11.440 -24.553  0.00  0.00    +0.153 HD
ATOM      9  N   UNL     1      34.794 -16.514 -25.290  0.00  0.00    -0.301 N 
ATOM     10  H   UNL     1      35.376 -16.884 -25.991  0.00  0.00    +0.153 HD
ENDROOT
BRANCH   1  12
ATOM     11  F   UNL     1      31.720 -10.177 -22.787  0.00  0.00    -0.203 F 
ATOM     12  C   UNL     1      32.457 -12.435 -22.816  0.00  0.00    +0.077 C 
ATOM     13  C   UNL     1      32.421 -13.709 -20.763  0.00  0.00    +0.073 C 
ATOM     14  C   UNL     1      32.692 -13.627 -22.129  0.00  0.00    +0.021 C 
ATOM     15  C   UNL     1      31.950 -11.327 -22.136  0.00  0.00    +0.153 C 
ATOM     16  C   UNL     1      31.915 -12.601 -20.084  0.00  0.00    +0.006 C 
ATOM     17  C   UNL     1      31.680 -11.410 -20.770  0.00  0.00    +0.031 C 
BRANCH  13  21
ATOM     18  F   UNL     1      32.118 -15.014 -18.781  0.00  0.00    -0.166 F 
ATOM     19  F   UNL     1      32.181 -16.087 -20.665  0.00  0.00    -0.166 F 
ATOM     20  F   UNL     1      34.002 -15.229 -19.844  0.00  0.00    -0.166 F 
ATOM     21  C   UNL     1      32.673 -14.982 -20.029  0.00  0.00    +0.419 C 
ENDBRANCH  13  21
ENDBRANCH   1  12
BRANCH   9  23
ATOM     22  C   UNL     1      34.924 -18.660 -21.681  0.00  0.00    +0.139 C 
ATOM     23  C   UNL     1      34.837 -17.235 -24.078  0.00  0.00    +0.049 C 
ATOM     24  C   UNL     1      35.186 -17.290 -21.689  0.00  0.00    +0.038 C 
ATOM     25  C   UNL     1      34.620 -19.318 -22.873  0.00  0.00    +0.038 C 
ATOM     26  C   UNL     1      35.142 -16.577 -22.887  0.00  0.00    +0.018 C 
ATOM     27  C   UNL     1      34.576 -18.605 -24.071  0.00  0.00    +0.018 C 
BRANCH  22  28
ATOM     28  O   UNL     1      34.968 -19.359 -20.505  0.00  0.00    -0.473 OA
BRANCH  28  29
ATOM     29  C   UNL     1      35.822 -20.498 -20.468  0.00  0.00    +0.232 C 
BRANCH  29  30
ATOM     30  C   UNL     1      35.425 -21.374 -19.282  0.00  0.00    +0.133 C 
BRANCH  30  31
ATOM     31  O   UNL     1      36.614 -21.807 -18.616  0.00  0.00    -0.383 OA
ATOM     32  H   UNL     1      37.285 -21.109 -18.666  0.00  0.00    +0.210 HD
ENDBRANCH  30  31
BRANCH  30  33
ATOM     33  C   UNL     1      34.625 -22.615 -19.686  0.00  0.00    -0.044 C 
BRANCH  33  34
ATOM     34  N   UNL     1      33.291 -22.621 -19.101  0.00  0.00    +0.386 N 
ATOM     35  C   UNL     1      33.340 -23.069 -17.707  0.00  0.00    -0.101 C 
ATOM     36  C   UNL     1      32.685 -21.290 -19.183  0.00  0.00    -0.101 C 
ATOM     37  H   UNL     1      32.715 -23.273 -19.631  0.00  0.00    -0.080 HD
ENDBRANCH  33  34
ENDBRANCH  30  33
ENDBRANCH  29  30
ENDBRANCH  28  29
ENDBRANCH  22  28
ENDBRANCH   9  23
TORSDOF 9
ENDMDL
MODEL 4
REMARK VINA RESULT:      -9.3      8.501     12.146
REMARK  Name = 448994
REMARK  9 active torsions:
REMARK  status: ('A' for Active; 'I' for Inactive)
REMARK    1  A    between atoms: N_1  and  C_10
REMARK    2  A    between atoms: C_11  and  C_19
REMARK    3  A    between atoms: N_20  and  C_23
REMARK    4  A    between atoms: C_22  and  O_28
REMARK    5  A    between atoms: O_28  and  C_29
REMARK    6  A    between atoms: C_29  and  C_30
REMARK    7  A    between atoms: C_30  and  O_31
REMARK    8  A    between atoms: C_30  and  C_33
REMARK    9  A    between atoms: C_33  and  N_34
REMARK                            x       y       z     vdW  Elec       q    Type
REMARK                         _______ _______ _______ _____ _____    ______ ____
ROOT
ATOM      1  N   UNL     1      37.033 -22.056 -17.241  0.00  0.00    -0.300 N 
ATOM      2  N   UNL     1      37.118 -24.300 -13.756  0.00  0.00    -0.233 NA
ATOM      3  N   UNL     1      38.241 -23.400 -15.689  0.00  0.00    -0.233 NA
ATOM      4  C   UNL     1      35.987 -23.696 -14.178  0.00  0.00    +0.113 C 
ATOM      5  C   UNL     1      37.075 -22.825 -16.052  0.00  0.00    +0.113 C 
ATOM      6  C   UNL     1      35.905 -22.940 -15.329  0.00  0.00    +0.122 C 
ATOM      7  C   UNL     1      38.190 -24.113 -14.548  0.00  0.00    +0.252 C 
ATOM      8  H   UNL     1      37.888 -21.619 -17.461  0.00  0.00    +0.153 HD
ATOM      9  N   UNL     1      34.815 -23.839 -13.410  0.00  0.00    -0.301 N 
ATOM     10  H   UNL     1      34.984 -23.950 -12.447  0.00  0.00    +0.153 HD
ENDROOT
BRANCH   1  12
ATOM     11  F   UNL     1      34.621 -23.437 -17.154  0.00  0.00    -0.203 F 
ATOM     12  C   UNL     1      36.010 -21.797 -18.167  0.00  0.00    +0.077 C 
ATOM     13  C   UNL     1      35.179 -20.569 -20.074  0.00  0.00    +0.073 C 
ATOM     14  C   UNL     1      36.195 -20.829 -19.154  0.00  0.00    +0.021 C 
ATOM     15  C   UNL     1      34.810 -22.504 -18.100  0.00  0.00    +0.153 C 
ATOM     16  C   UNL     1      33.979 -21.277 -20.008  0.00  0.00    +0.006 C 
ATOM     17  C   UNL     1      33.794 -22.245 -19.020  0.00  0.00    +0.031 C 
BRANCH  13  21
ATOM     18  F   UNL     1      36.671 -19.117 -21.253  0.00  0.00    -0.166 F 
ATOM     19  F   UNL     1      35.019 -19.955 -22.380  0.00  0.00    -0.166 F 
ATOM     20  F   UNL     1      34.648 -18.404 -20.902  0.00  0.00    -0.166 F 
ATOM     21  C   UNL     1      35.376 -19.535 -21.130  0.00  0.00    +0.419 C 
ENDBRANCH  13  21
ENDBRANCH   1  12
BRANCH   9  23
ATOM     22  C   UNL     1      30.738 -23.877 -14.424  0.00  0.00    +0.139 C 
ATOM     23  C   UNL     1      33.446 -23.852 -13.751  0.00  0.00    +0.049 C 
ATOM     24  C   UNL     1      31.508 -22.740 -14.670  0.00  0.00    +0.038 C 
ATOM     25  C   UNL     1      31.322 -25.002 -13.840  0.00  0.00    +0.038 C 
ATOM     26  C   UNL     1      32.862 -22.728 -14.334  0.00  0.00    +0.018 C 
ATOM     27  C   UNL     1      32.676 -24.989 -13.504  0.00  0.00    +0.018 C 
BRANCH  22  28
ATOM     28  O   UNL     1      29.410 -23.890 -14.754  0.00  0.00    -0.473 OA
BRANCH  28  29
ATOM     29  C   UNL     1      29.046 -24.627 -15.917  0.00  0.00    +0.232 C 
BRANCH  29  30
ATOM     30  C   UNL     1      27.865 -23.933 -16.591  0.00  0.00    +0.133 C 
BRANCH  30  31
ATOM     31  O   UNL     1      27.476 -24.701 -17.734  0.00  0.00    -0.383 OA
ATOM     32  H   UNL     1      26.687 -25.224 -17.519  0.00  0.00    +0.210 HD
ENDBRANCH  30  31
BRANCH  30  33
ATOM     33  C   UNL     1      28.184 -22.511 -17.058  0.00  0.00    -0.044 C 
BRANCH  33  34
ATOM     34  N   UNL     1      27.089 -21.588 -16.788  0.00  0.00    +0.386 N 
ATOM     35  C   UNL     1      26.227 -21.450 -17.964  0.00  0.00    -0.101 C 
ATOM     36  C   UNL     1      26.305 -22.039 -15.636  0.00  0.00    -0.101 C 
ATOM     37  H   UNL     1      27.490 -20.677 -16.571  0.00  0.00    -0.080 HD
ENDBRANCH  33  34
ENDBRANCH  30  33
ENDBRANCH  29  30
ENDBRANCH  28  29
ENDBRANCH  22  28
ENDBRANCH   9  23
TORSDOF 9
ENDMDL
MODEL 5
REMARK VINA RESULT:      -9.0      8.121     11.637
REMARK  Name = 448994
REMARK  9 active torsions:
REMARK  status: ('A' for Active; 'I' for Inactive)
REMARK    1  A    between atoms: N_1  and  C_10
REMARK    2  A    between atoms: C_11  and  C_19
REMARK    3  A    between atoms: N_20  and  C_23
REMARK    4  A    between atoms: C_22  and  O_28
REMARK    5  A    between atoms: O_28  and  C_29
REMARK    6  A    between atoms: C_29  and  C_30
REMARK    7  A    between atoms: C_30  and  O_31
REMARK    8  A    between atoms: C_30  and  C_33
REMARK    9  A    between atoms: C_33  and  N_34
REMARK                            x       y       z     vdW  Elec       q    Type
REMARK                         _______ _______ _______ _____ _____    ______ ____
ROOT
ATOM      1  N   UNL     1      31.825 -22.301 -18.432  0.00  0.00    -0.300 N 
ATOM      2  N   UNL     1      30.432 -23.231 -14.639  0.00  0.00    -0.233 NA
ATOM      3  N   UNL     1      30.032 -22.407 -16.868  0.00  0.00    -0.233 NA
ATOM      4  C   UNL     1      31.725 -23.415 -14.980  0.00  0.00    +0.113 C 
ATOM      5  C   UNL     1      31.337 -22.615 -17.140  0.00  0.00    +0.113 C 
ATOM      6  C   UNL     1      32.239 -23.122 -16.226  0.00  0.00    +0.122 C 
ATOM      7  C   UNL     1      29.653 -22.731 -15.617  0.00  0.00    +0.252 C 
ATOM      8  H   UNL     1      31.153 -22.398 -19.144  0.00  0.00    +0.153 HD
ATOM      9  N   UNL     1      32.613 -23.935 -14.017  0.00  0.00    -0.301 N 
ATOM     10  H   UNL     1      32.184 -24.536 -13.368  0.00  0.00    +0.153 HD
ENDROOT
BRANCH   1  12
ATOM     11  F   UNL     1      34.155 -23.629 -17.700  0.00  0.00    -0.203 F 
ATOM     12  C   UNL     1      33.082 -21.879 -18.893  0.00  0.00    +0.077 C 
ATOM     13  C   UNL     1      34.424 -20.351 -20.198  0.00  0.00    +0.073 C 
ATOM     14  C   UNL     1      33.176 -20.772 -19.738  0.00  0.00    +0.021 C 
ATOM     15  C   UNL     1      34.235 -22.564 -18.510  0.00  0.00    +0.153 C 
ATOM     16  C   UNL     1      35.577 -21.036 -19.815  0.00  0.00    +0.006 C 
ATOM     17  C   UNL     1      35.483 -22.143 -18.970  0.00  0.00    +0.031 C 
BRANCH  13  21
ATOM     18  F   UNL     1      34.488 -19.486 -22.428  0.00  0.00    -0.166 F 
ATOM     19  F   UNL     1      33.522 -18.259 -20.924  0.00  0.00    -0.166 F 
ATOM     20  F   UNL     1      35.686 -18.471 -20.924  0.00  0.00    -0.166 F 
ATOM     21  C   UNL     1      34.526 -19.168 -21.100  0.00  0.00    +0.419 C 
ENDBRANCH  13  21
ENDBRANCH   1  12
BRANCH   9  23
ATOM     22  C   UNL     1      36.732 -23.415 -13.375  0.00  0.00    +0.139 C 
ATOM     23  C   UNL     1      33.996 -23.761 -13.802  0.00  0.00    +0.049 C 
ATOM     24  C   UNL     1      35.922 -23.906 -12.351  0.00  0.00    +0.038 C 
ATOM     25  C   UNL     1      36.173 -23.095 -14.614  0.00  0.00    +0.038 C 
ATOM     26  C   UNL     1      34.555 -24.080 -12.564  0.00  0.00    +0.018 C 
ATOM     27  C   UNL     1      34.805 -23.268 -14.826  0.00  0.00    +0.018 C 
BRANCH  22  28
ATOM     28  O   UNL     1      38.074 -23.245 -13.166  0.00  0.00    -0.473 OA
BRANCH  28  29
ATOM     29  C   UNL     1      38.742 -24.269 -12.434  0.00  0.00    +0.232 C 
BRANCH  29  30
ATOM     30  C   UNL     1      39.386 -25.240 -13.421  0.00  0.00    +0.133 C 
BRANCH  30  31
ATOM     31  O   UNL     1      40.623 -24.679 -13.872  0.00  0.00    -0.383 OA
ATOM     32  H   UNL     1      41.343 -24.982 -13.297  0.00  0.00    +0.210 HD
ENDBRANCH  30  31
BRANCH  30  33
ATOM     33  C   UNL     1      38.515 -25.523 -14.648  0.00  0.00    -0.044 C 
BRANCH  33  34
ATOM     34  N   UNL     1      37.789 -26.780 -14.525  0.00  0.00    +0.386 N 
ATOM     35  C   UNL     1      37.194 -26.906 -13.193  0.00  0.00    -0.101 C 
ATOM     36  C   UNL     1      36.752 -26.880 -15.554  0.00  0.00    -0.101 C 
ATOM     37  H   UNL     1      38.452 -27.543 -14.658  0.00  0.00    -0.080 HD
ENDBRANCH  33  34
ENDBRANCH  30  33
ENDBRANCH  29  30
ENDBRANCH  28  29
ENDBRANCH  22  28
ENDBRANCH   9  23
TORSDOF 9
ENDMDL
MODEL 6
REMARK VINA RESULT:      -8.8      3.525      6.050
REMARK  Name = 448994
REMARK  9 active torsions:
REMARK  status: ('A' for Active; 'I' for Inactive)
REMARK    1  A    between atoms: N_1  and  C_10
REMARK    2  A    between atoms: C_11  and  C_19
REMARK    3  A    between atoms: N_20  and  C_23
REMARK    4  A    between atoms: C_22  and  O_28
REMARK    5  A    between atoms: O_28  and  C_29
REMARK    6  A    between atoms: C_29  and  C_30
REMARK    7  A    between atoms: C_30  and  O_31
REMARK    8  A    between atoms: C_30  and  C_33
REMARK    9  A    between atoms: C_33  and  N_34
REMARK                            x       y       z     vdW  Elec       q    Type
REMARK                         _______ _______ _______ _____ _____    ______ ____
ROOT
ATOM      1  N   UNL     1      32.789 -13.289 -23.601  0.00  0.00    -0.300 N 
ATOM      2  N   UNL     1      33.814 -16.212 -26.356  0.00  0.00    -0.233 NA
ATOM      3  N   UNL     1      32.710 -14.137 -25.825  0.00  0.00    -0.233 NA
ATOM      4  C   UNL     1      34.205 -16.291 -25.067  0.00  0.00    +0.113 C 
ATOM      5  C   UNL     1      33.134 -14.281 -24.552  0.00  0.00    +0.113 C 
ATOM      6  C   UNL     1      33.891 -15.348 -24.111  0.00  0.00    +0.122 C 
ATOM      7  C   UNL     1      33.081 -15.125 -26.662  0.00  0.00    +0.252 C 
ATOM      8  H   UNL     1      32.685 -12.389 -23.987  0.00  0.00    +0.153 HD
ATOM      9  N   UNL     1      34.977 -17.396 -24.659  0.00  0.00    -0.301 N 
ATOM     10  H   UNL     1      35.549 -17.764 -25.370  0.00  0.00    +0.153 HD
ENDROOT
BRANCH   1  12
ATOM     11  F   UNL     1      33.137 -15.646 -22.168  0.00  0.00    -0.203 F 
ATOM     12  C   UNL     1      32.568 -13.340 -22.216  0.00  0.00    +0.077 C 
ATOM     13  C   UNL     1      31.948 -12.240 -20.156  0.00  0.00    +0.073 C 
ATOM     14  C   UNL     1      32.167 -12.192 -21.533  0.00  0.00    +0.021 C 
ATOM     15  C   UNL     1      32.751 -14.536 -21.521  0.00  0.00    +0.153 C 
ATOM     16  C   UNL     1      32.130 -13.436 -19.462  0.00  0.00    +0.006 C 
ATOM     17  C   UNL     1      32.531 -14.585 -20.145  0.00  0.00    +0.031 C 
BRANCH  13  21
ATOM     18  F   UNL     1      30.352 -10.478 -19.893  0.00  0.00    -0.166 F 
ATOM     19  F   UNL     1      31.305 -11.218 -18.092  0.00  0.00    -0.166 F 
ATOM     20  F   UNL     1      32.438 -10.008 -19.500  0.00  0.00    -0.166 F 
ATOM     21  C   UNL     1      31.518 -11.013 -19.426  0.00  0.00    +0.419 C 
ENDBRANCH  13  21
ENDBRANCH   1  12
BRANCH   9  23
ATOM     22  C   UNL     1      35.315 -19.428 -20.998  0.00  0.00    +0.139 C 
ATOM     23  C   UNL     1      35.091 -18.079 -23.430  0.00  0.00    +0.049 C 
ATOM     24  C   UNL     1      34.153 -19.552 -21.760  0.00  0.00    +0.038 C 
ATOM     25  C   UNL     1      36.365 -18.629 -21.451  0.00  0.00    +0.038 C 
ATOM     26  C   UNL     1      34.041 -18.878 -22.976  0.00  0.00    +0.018 C 
ATOM     27  C   UNL     1      36.252 -17.954 -22.667  0.00  0.00    +0.018 C 
BRANCH  22  28
ATOM     28  O   UNL     1      35.424 -20.090 -19.804  0.00  0.00    -0.473 OA
BRANCH  28  29
ATOM     29  C   UNL     1      36.692 -20.668 -19.507  0.00  0.00    +0.232 C 
BRANCH  29  30
ATOM     30  C   UNL     1      36.479 -21.892 -18.620  0.00  0.00    +0.133 C 
BRANCH  30  31
ATOM     31  O   UNL     1      35.125 -22.331 -18.765  0.00  0.00    -0.383 OA
ATOM     32  H   UNL     1      34.733 -21.918 -19.551  0.00  0.00    +0.210 HD
ENDBRANCH  30  31
BRANCH  30  33
ATOM     33  C   UNL     1      36.735 -21.618 -17.136  0.00  0.00    -0.044 C 
BRANCH  33  34
ATOM     34  N   UNL     1      36.547 -22.809 -16.319  0.00  0.00    +0.386 N 
ATOM     35  C   UNL     1      37.796 -23.181 -15.651  0.00  0.00    -0.101 C 
ATOM     36  C   UNL     1      35.489 -22.593 -15.329  0.00  0.00    -0.101 C 
ATOM     37  H   UNL     1      36.266 -23.573 -16.932  0.00  0.00    -0.080 HD
ENDBRANCH  33  34
ENDBRANCH  30  33
ENDBRANCH  29  30
ENDBRANCH  28  29
ENDBRANCH  22  28
ENDBRANCH   9  23
TORSDOF 9
ENDMDL
MODEL 7
REMARK VINA RESULT:      -8.2      1.602      2.270
REMARK  Name = 448994
REMARK  9 active torsions:
REMARK  status: ('A' for Active; 'I' for Inactive)
REMARK    1  A    between atoms: N_1  and  C_10
REMARK    2  A    between atoms: C_11  and  C_19
REMARK    3  A    between atoms: N_20  and  C_23
REMARK    4  A    between atoms: C_22  and  O_28
REMARK    5  A    between atoms: O_28  and  C_29
REMARK    6  A    between atoms: C_29  and  C_30
REMARK    7  A    between atoms: C_30  and  O_31
REMARK    8  A    between atoms: C_30  and  C_33
REMARK    9  A    between atoms: C_33  and  N_34
REMARK                            x       y       z     vdW  Elec       q    Type
REMARK                         _______ _______ _______ _____ _____    ______ ____
ROOT
ATOM      1  N   UNL     1      32.771  -8.836 -23.018  0.00  0.00    -0.300 N 
ATOM      2  N   UNL     1      31.452 -10.169 -19.321  0.00  0.00    -0.233 NA
ATOM      3  N   UNL     1      32.048  -8.362 -20.798  0.00  0.00    -0.233 NA
ATOM      4  C   UNL     1      31.740 -11.031 -20.318  0.00  0.00    +0.113 C 
ATOM      5  C   UNL     1      32.319  -9.279 -21.751  0.00  0.00    +0.113 C 
ATOM      6  C   UNL     1      32.182 -10.640 -21.565  0.00  0.00    +0.122 C 
ATOM      7  C   UNL     1      31.626  -8.869 -19.625  0.00  0.00    +0.252 C 
ATOM      8  H   UNL     1      32.429  -7.948 -23.273  0.00  0.00    +0.153 HD
ATOM      9  N   UNL     1      31.586 -12.412 -20.087  0.00  0.00    -0.301 N 
ATOM     10  H   UNL     1      30.879 -12.628 -19.438  0.00  0.00    +0.153 HD
ENDROOT
BRANCH   1  12
ATOM     11  F   UNL     1      35.255  -7.743 -23.620  0.00  0.00    -0.203 F 
ATOM     12  C   UNL     1      33.610  -9.418 -23.981  0.00  0.00    +0.077 C 
ATOM     13  C   UNL     1      34.033 -11.148 -25.614  0.00  0.00    +0.073 C 
ATOM     14  C   UNL     1      33.200 -10.568 -24.657  0.00  0.00    +0.021 C 
ATOM     15  C   UNL     1      34.852  -8.848 -24.264  0.00  0.00    +0.153 C 
ATOM     16  C   UNL     1      35.274 -10.578 -25.897  0.00  0.00    +0.006 C 
ATOM     17  C   UNL     1      35.684  -9.428 -25.222  0.00  0.00    +0.031 C 
BRANCH  13  21
ATOM     18  F   UNL     1      32.367 -12.259 -26.922  0.00  0.00    -0.166 F 
ATOM     19  F   UNL     1      34.437 -12.745 -27.348  0.00  0.00    -0.166 F 
ATOM     20  F   UNL     1      33.509 -13.465 -25.519  0.00  0.00    -0.166 F 
ATOM     21  C   UNL     1      33.595 -12.377 -26.337  0.00  0.00    +0.419 C 
ENDBRANCH  13  21
ENDBRANCH   1  12
BRANCH   9  23
ATOM     22  C   UNL     1      33.553 -15.788 -21.629  0.00  0.00    +0.139 C 
ATOM     23  C   UNL     1      32.247 -13.545 -20.604  0.00  0.00    +0.049 C 
ATOM     24  C   UNL     1      33.250 -14.714 -22.466  0.00  0.00    +0.038 C 
ATOM     25  C   UNL     1      33.202 -15.741 -20.279  0.00  0.00    +0.038 C 
ATOM     26  C   UNL     1      32.598 -13.592 -21.954  0.00  0.00    +0.018 C 
ATOM     27  C   UNL     1      32.549 -14.620 -19.768  0.00  0.00    +0.018 C 
BRANCH  22  28
ATOM     28  O   UNL     1      34.194 -16.889 -22.132  0.00  0.00    -0.473 OA
BRANCH  28  29
ATOM     29  C   UNL     1      34.968 -17.654 -21.213  0.00  0.00    +0.232 C 
BRANCH  29  30
ATOM     30  C   UNL     1      35.555 -18.857 -21.947  0.00  0.00    +0.133 C 
BRANCH  30  31
ATOM     31  O   UNL     1      36.752 -18.446 -22.613  0.00  0.00    -0.383 OA
ATOM     32  H   UNL     1      37.095 -17.641 -22.196  0.00  0.00    +0.210 HD
ENDBRANCH  30  31
BRANCH  30  33
ATOM     33  C   UNL     1      34.607 -19.451 -22.992  0.00  0.00    -0.044 C 
BRANCH  33  34
ATOM     34  N   UNL     1      35.096 -19.252 -24.350  0.00  0.00    +0.386 N 
ATOM     35  C   UNL     1      35.106 -20.518 -25.087  0.00  0.00    -0.101 C 
ATOM     36  C   UNL     1      34.276 -18.264 -25.054  0.00  0.00    -0.101 C 
ATOM     37  H   UNL     1      36.051 -18.901 -24.295  0.00  0.00    -0.080 HD
ENDBRANCH  33  34
ENDBRANCH  30  33
ENDBRANCH  29  30
ENDBRANCH  28  29
ENDBRANCH  22  28
ENDBRANCH   9  23
TORSDOF 9
ENDMDL
MODEL 8
REMARK VINA RESULT:      -8.1      7.058     12.905
REMARK  Name = 448994
REMARK  9 active torsions:
REMARK  status: ('A' for Active; 'I' for Inactive)
REMARK    1  A    between atoms: N_1  and  C_10
REMARK    2  A    between atoms: C_11  and  C_19
REMARK    3  A    between atoms: N_20  and  C_23
REMARK    4  A    between atoms: C_22  and  O_28
REMARK    5  A    between atoms: O_28  and  C_29
REMARK    6  A    between atoms: C_29  and  C_30
REMARK    7  A    between atoms: C_30  and  O_31
REMARK    8  A    between atoms: C_30  and  C_33
REMARK    9  A    between atoms: C_33  and  N_34
REMARK                            x       y       z     vdW  Elec       q    Type
REMARK                         _______ _______ _______ _____ _____    ______ ____
ROOT
ATOM      1  N   UNL     1      33.482 -24.217 -13.671  0.00  0.00    -0.300 N 
ATOM      2  N   UNL     1      37.374 -23.098 -14.554  0.00  0.00    -0.233 NA
ATOM      3  N   UNL     1      35.725 -23.844 -12.963  0.00  0.00    -0.233 NA
ATOM      4  C   UNL     1      36.414 -23.115 -15.502  0.00  0.00    +0.113 C 
ATOM      5  C   UNL     1      34.815 -23.837 -13.960  0.00  0.00    +0.113 C 
ATOM      6  C   UNL     1      35.105 -23.478 -15.261  0.00  0.00    +0.122 C 
ATOM      7  C   UNL     1      36.966 -23.468 -13.325  0.00  0.00    +0.252 C 
ATOM      8  H   UNL     1      33.406 -24.872 -12.939  0.00  0.00    +0.153 HD
ATOM      9  N   UNL     1      36.753 -22.741 -16.817  0.00  0.00    -0.301 N 
ATOM     10  H   UNL     1      37.686 -22.941 -17.057  0.00  0.00    +0.153 HD
ENDROOT
BRANCH   1  12
ATOM     11  F   UNL     1      32.766 -21.543 -13.929  0.00  0.00    -0.203 F 
ATOM     12  C   UNL     1      32.248 -23.842 -14.225  0.00  0.00    +0.077 C 
ATOM     13  C   UNL     1      30.128 -24.451 -15.212  0.00  0.00    +0.073 C 
ATOM     14  C   UNL     1      31.355 -24.822 -14.660  0.00  0.00    +0.021 C 
ATOM     15  C   UNL     1      31.914 -22.493 -14.343  0.00  0.00    +0.153 C 
ATOM     16  C   UNL     1      29.795 -23.102 -15.329  0.00  0.00    +0.006 C 
ATOM     17  C   UNL     1      30.688 -22.123 -14.895  0.00  0.00    +0.031 C 
BRANCH  13  21
ATOM     18  F   UNL     1      28.363 -25.978 -14.686  0.00  0.00    -0.166 F 
ATOM     19  F   UNL     1      28.321 -25.066 -16.653  0.00  0.00    -0.166 F 
ATOM     20  F   UNL     1      29.802 -26.591 -16.197  0.00  0.00    -0.166 F 
ATOM     21  C   UNL     1      29.172 -25.498 -15.676  0.00  0.00    +0.419 C 
ENDBRANCH  13  21
ENDBRANCH   1  12
BRANCH   9  23
ATOM     22  C   UNL     1      34.559 -20.940 -19.914  0.00  0.00    +0.139 C 
ATOM     23  C   UNL     1      36.016 -22.137 -17.857  0.00  0.00    +0.049 C 
ATOM     24  C   UNL     1      35.923 -20.678 -19.781  0.00  0.00    +0.038 C 
ATOM     25  C   UNL     1      33.923 -21.800 -19.017  0.00  0.00    +0.038 C 
ATOM     26  C   UNL     1      36.651 -21.277 -18.753  0.00  0.00    +0.018 C 
ATOM     27  C   UNL     1      34.652 -22.398 -17.989  0.00  0.00    +0.018 C 
BRANCH  22  28
ATOM     28  O   UNL     1      33.844 -20.352 -20.923  0.00  0.00    -0.473 OA
BRANCH  28  29
ATOM     29  C   UNL     1      34.007 -18.947 -21.089  0.00  0.00    +0.232 C 
BRANCH  29  30
ATOM     30  C   UNL     1      34.498 -18.673 -22.509  0.00  0.00    +0.133 C 
BRANCH  30  31
ATOM     31  O   UNL     1      34.910 -19.911 -23.096  0.00  0.00    -0.383 OA
ATOM     32  H   UNL     1      35.399 -19.734 -23.915  0.00  0.00    +0.210 HD
ENDBRANCH  30  31
BRANCH  30  33
ATOM     33  C   UNL     1      35.679 -17.701 -22.565  0.00  0.00    -0.044 C 
BRANCH  33  34
ATOM     34  N   UNL     1      35.396 -16.544 -23.404  0.00  0.00    +0.386 N 
ATOM     35  C   UNL     1      34.655 -16.943 -24.603  0.00  0.00    -0.101 C 
ATOM     36  C   UNL     1      34.641 -15.536 -22.656  0.00  0.00    -0.101 C 
ATOM     37  H   UNL     1      36.284 -16.137 -23.692  0.00  0.00    -0.080 HD
ENDBRANCH  33  34
ENDBRANCH  30  33
ENDBRANCH  29  30
ENDBRANCH  28  29
ENDBRANCH  22  28
ENDBRANCH   9  23
TORSDOF 9
ENDMDL
MODEL 9
REMARK VINA RESULT:      -8.0      3.215      4.871
REMARK  Name = 448994
REMARK  9 active torsions:
REMARK  status: ('A' for Active; 'I' for Inactive)
REMARK    1  A    between atoms: N_1  and  C_10
REMARK    2  A    between atoms: C_11  and  C_19
REMARK    3  A    between atoms: N_20  and  C_23
REMARK    4  A    between atoms: C_22  and  O_28
REMARK    5  A    between atoms: O_28  and  C_29
REMARK    6  A    between atoms: C_29  and  C_30
REMARK    7  A    between atoms: C_30  and  O_31
REMARK    8  A    between atoms: C_30  and  C_33
REMARK    9  A    between atoms: C_33  and  N_34
REMARK                            x       y       z     vdW  Elec       q    Type
REMARK                         _______ _______ _______ _____ _____    ______ ____
ROOT
ATOM      1  N   UNL     1      32.473  -6.345 -22.145  0.00  0.00    -0.300 N 
ATOM      2  N   UNL     1      31.756  -9.362 -19.395  0.00  0.00    -0.233 NA
ATOM      3  N   UNL     1      32.151  -7.038 -19.889  0.00  0.00    -0.233 NA
ATOM      4  C   UNL     1      31.845  -9.620 -20.716  0.00  0.00    +0.113 C 
ATOM      5  C   UNL     1      32.228  -7.367 -21.196  0.00  0.00    +0.113 C 
ATOM      6  C   UNL     1      32.082  -8.654 -21.672  0.00  0.00    +0.122 C 
ATOM      7  C   UNL     1      31.918  -8.069 -19.057  0.00  0.00    +0.252 C 
ATOM      8  H   UNL     1      32.122  -5.464 -21.880  0.00  0.00    +0.153 HD
ATOM      9  N   UNL     1      31.688 -10.948 -21.160  0.00  0.00    -0.301 N 
ATOM     10  H   UNL     1      31.095 -11.488 -20.591  0.00  0.00    +0.153 HD
ENDROOT
BRANCH   1  12
ATOM     11  F   UNL     1      34.657  -7.992 -22.643  0.00  0.00    -0.203 F 
ATOM     12  C   UNL     1      33.119  -6.344 -23.392  0.00  0.00    +0.077 C 
ATOM     13  C   UNL     1      33.304  -5.503 -25.650  0.00  0.00    +0.073 C 
ATOM     14  C   UNL     1      32.664  -5.505 -24.409  0.00  0.00    +0.021 C 
ATOM     15  C   UNL     1      34.212  -7.181 -23.615  0.00  0.00    +0.153 C 
ATOM     16  C   UNL     1      34.398  -6.340 -25.872  0.00  0.00    +0.006 C 
ATOM     17  C   UNL     1      34.852  -7.179 -24.854  0.00  0.00    +0.031 C 
BRANCH  13  21
ATOM     18  F   UNL     1      33.601  -3.502 -26.926  0.00  0.00    -0.166 F 
ATOM     19  F   UNL     1      32.759  -5.213 -27.960  0.00  0.00    -0.166 F 
ATOM     20  F   UNL     1      31.562  -4.129 -26.504  0.00  0.00    -0.166 F 
ATOM     21  C   UNL     1      32.819  -4.606 -26.737  0.00  0.00    +0.419 C 
ENDBRANCH  13  21
ENDBRANCH   1  12
BRANCH   9  23
ATOM     22  C   UNL     1      33.261 -13.051 -24.439  0.00  0.00    +0.139 C 
ATOM     23  C   UNL     1      32.217 -11.655 -22.261  0.00  0.00    +0.049 C 
ATOM     24  C   UNL     1      33.545 -11.695 -24.278  0.00  0.00    +0.038 C 
ATOM     25  C   UNL     1      32.453 -13.709 -23.511  0.00  0.00    +0.038 C 
ATOM     26  C   UNL     1      33.024 -10.997 -23.189  0.00  0.00    +0.018 C 
ATOM     27  C   UNL     1      31.931 -13.011 -22.422  0.00  0.00    +0.018 C 
BRANCH  22  28
ATOM     28  O   UNL     1      33.773 -13.736 -25.508  0.00  0.00    -0.473 OA
BRANCH  28  29
ATOM     29  C   UNL     1      33.429 -15.114 -25.610  0.00  0.00    +0.232 C 
BRANCH  29  30
ATOM     30  C   UNL     1      34.560 -15.950 -25.015  0.00  0.00    +0.133 C 
BRANCH  30  31
ATOM     31  O   UNL     1      34.944 -16.943 -25.971  0.00  0.00    -0.383 OA
ATOM     32  H   UNL     1      35.898 -16.880 -26.137  0.00  0.00    +0.210 HD
ENDBRANCH  30  31
BRANCH  30  33
ATOM     33  C   UNL     1      34.170 -16.662 -23.718  0.00  0.00    -0.044 C 
BRANCH  33  34
ATOM     34  N   UNL     1      35.260 -16.673 -22.751  0.00  0.00    +0.386 N 
ATOM     35  C   UNL     1      34.798 -16.196 -21.445  0.00  0.00    -0.101 C 
ATOM     36  C   UNL     1      35.825 -18.019 -22.626  0.00  0.00    -0.101 C 
ATOM     37  H   UNL     1      35.989 -16.045 -23.087  0.00  0.00    -0.080 HD
ENDBRANCH  33  34
ENDBRANCH  30  33
ENDBRANCH  29  30
ENDBRANCH  28  29
ENDBRANCH  22  28
ENDBRANCH   9  23
TORSDOF 9
ENDMDL
