MODEL 1
REMARK VINA RESULT:      -9.8      0.000      0.000
REMARK  Name = 3410
REMARK  10 active torsions:
REMARK  status: ('A' for Active; 'I' for Inactive)
REMARK    1  A    between atoms: C_1  and  N_2
REMARK    2  A    between atoms: C_1  and  C_16
REMARK    3  A    between atoms: N_2  and  C_5
REMARK    4  A    between atoms: C_5  and  C_7
REMARK    5  A    between atoms: C_7  and  C_8
REMARK    6  A    between atoms: C_13  and  O_14
REMARK    7  A    between atoms: C_16  and  C_17
REMARK    8  A    between atoms: C_16  and  O_29
REMARK    9  A    between atoms: C_20  and  N_24
REMARK   10  A    between atoms: C_22  and  O_27
REMARK                            x       y       z     vdW  Elec       q    Type
REMARK                         _______ _______ _______ _____ _____    ______ ____
ROOT
ATOM      1  C   UNL     1      34.649 -15.640 -22.895  0.00  0.00    -0.047 C 
ENDROOT
BRANCH   1   2
ATOM      2  N   UNL     1      35.502 -16.561 -23.625  0.00  0.00    +0.387 N 
ATOM      3  H   UNL     1      35.224 -16.571 -24.606  0.00  0.00    -0.084 HD
ATOM      4  H   UNL     1      36.470 -16.254 -23.535  0.00  0.00    -0.084 HD
BRANCH   2   5
ATOM      5  C   UNL     1      35.385 -17.916 -23.078  0.00  0.00    -0.057 C 
ATOM      6  C   UNL     1      34.719 -18.804 -24.131  0.00  0.00    -0.023 C 
BRANCH   5   7
ATOM      7  C   UNL     1      34.593 -17.873 -21.759  0.00  0.00    +0.005 C 
BRANCH   7   8
ATOM      8  C   UNL     1      34.597 -19.184 -21.008  0.00  0.00    -0.024 C 
ATOM      9  C   UNL     1      33.391 -19.774 -20.665  0.00  0.00    -0.001 C 
ATOM     10  C   UNL     1      35.808 -19.773 -20.679  0.00  0.00    -0.001 C 
ATOM     11  C   UNL     1      33.396 -20.986 -19.974  0.00  0.00    +0.037 C 
ATOM     12  C   UNL     1      35.812 -20.985 -19.988  0.00  0.00    +0.037 C 
ATOM     13  C   UNL     1      34.606 -21.590 -19.635  0.00  0.00    +0.139 C 
BRANCH  13  14
ATOM     14  O   UNL     1      34.611 -22.773 -18.960  0.00  0.00    -0.471 OA
ATOM     15  C   UNL     1      33.567 -22.983 -18.011  0.00  0.00    +0.252 C 
ENDBRANCH  13  14
ENDBRANCH   7   8
ENDBRANCH   5   7
ENDBRANCH   2   5
ENDBRANCH   1   2
BRANCH   1  16
ATOM     16  C   UNL     1      33.488 -15.159 -23.775  0.00  0.00    +0.112 C 
BRANCH  16  17
ATOM     17  C   UNL     1      33.219 -13.683 -23.578  0.00  0.00    +0.004 C 
ATOM     18  C   UNL     1      32.196 -13.289 -22.733  0.00  0.00    +0.016 C 
ATOM     19  C   UNL     1      34.001 -12.758 -24.248  0.00  0.00    +0.001 C 
ATOM     20  C   UNL     1      31.948 -11.928 -22.551  0.00  0.00    +0.085 C 
ATOM     21  C   UNL     1      33.753 -11.397 -24.066  0.00  0.00    +0.038 C 
ATOM     22  C   UNL     1      32.727 -10.983 -23.218  0.00  0.00    +0.147 C 
BRANCH  20  24
ATOM     23  O   UNL     1      31.941 -11.344 -19.574  0.00  0.00    -0.265 OA
ATOM     24  N   UNL     1      30.916 -11.529 -21.699  0.00  0.00    -0.274 N 
ATOM     25  C   UNL     1      30.985 -11.276 -20.334  0.00  0.00    +0.304 C 
ATOM     26  H   UNL     1      30.032 -11.412 -22.116  0.00  0.00    +0.155 HD
ENDBRANCH  20  24
BRANCH  22  27
ATOM     27  O   UNL     1      32.500  -9.648 -23.055  0.00  0.00    -0.504 OA
ATOM     28  H   UNL     1      32.059  -9.163 -23.724  0.00  0.00    +0.292 HD
ENDBRANCH  22  27
ENDBRANCH  16  17
BRANCH  16  29
ATOM     29  O   UNL     1      33.789 -15.378 -25.153  0.00  0.00    -0.382 OA
ATOM     30  H   UNL     1      34.048 -16.303 -25.285  0.00  0.00    +0.211 HD
ENDBRANCH  16  29
ENDBRANCH   1  16
TORSDOF 10
ENDMDL
MODEL 2
REMARK VINA RESULT:      -9.6      0.942      1.920
REMARK  Name = 3410
REMARK  10 active torsions:
REMARK  status: ('A' for Active; 'I' for Inactive)
REMARK    1  A    between atoms: C_1  and  N_2
REMARK    2  A    between atoms: C_1  and  C_16
REMARK    3  A    between atoms: N_2  and  C_5
REMARK    4  A    between atoms: C_5  and  C_7
REMARK    5  A    between atoms: C_7  and  C_8
REMARK    6  A    between atoms: C_13  and  O_14
REMARK    7  A    between atoms: C_16  and  C_17
REMARK    8  A    between atoms: C_16  and  O_29
REMARK    9  A    between atoms: C_20  and  N_24
REMARK   10  A    between atoms: C_22  and  O_27
REMARK                            x       y       z     vdW  Elec       q    Type
REMARK                         _______ _______ _______ _____ _____    ______ ____
ROOT
ATOM      1  C   UNL     1      34.866 -15.858 -23.132  0.00  0.00    -0.047 C 
ENDROOT
BRANCH   1   2
ATOM      2  N   UNL     1      35.247 -16.957 -24.002  0.00  0.00    +0.387 N 
ATOM      3  H   UNL     1      34.535 -17.076 -24.722  0.00  0.00    -0.084 HD
ATOM      4  H   UNL     1      36.148 -16.742 -24.429  0.00  0.00    -0.084 HD
BRANCH   2   5
ATOM      5  C   UNL     1      35.371 -18.201 -23.237  0.00  0.00    -0.057 C 
ATOM      6  C   UNL     1      34.761 -19.336 -24.062  0.00  0.00    -0.023 C 
BRANCH   5   7
ATOM      7  C   UNL     1      34.688 -18.036 -21.868  0.00  0.00    +0.005 C 
BRANCH   7   8
ATOM      8  C   UNL     1      34.674 -19.301 -21.043  0.00  0.00    -0.024 C 
ATOM      9  C   UNL     1      33.460 -19.863 -20.682  0.00  0.00    -0.001 C 
ATOM     10  C   UNL     1      35.876 -19.877 -20.664  0.00  0.00    -0.001 C 
ATOM     11  C   UNL     1      33.447 -21.032 -19.922  0.00  0.00    +0.037 C 
ATOM     12  C   UNL     1      35.864 -21.047 -19.904  0.00  0.00    +0.037 C 
ATOM     13  C   UNL     1      34.649 -21.624 -19.532  0.00  0.00    +0.139 C 
BRANCH  13  14
ATOM     14  O   UNL     1      34.638 -22.764 -18.790  0.00  0.00    -0.471 OA
ATOM     15  C   UNL     1      33.527 -22.960 -17.917  0.00  0.00    +0.252 C 
ENDBRANCH  13  14
ENDBRANCH   7   8
ENDBRANCH   5   7
ENDBRANCH   2   5
ENDBRANCH   1   2
BRANCH   1  16
ATOM     16  C   UNL     1      33.524 -15.256 -23.568  0.00  0.00    +0.112 C 
BRANCH  16  17
ATOM     17  C   UNL     1      32.978 -14.308 -22.523  0.00  0.00    +0.004 C 
ATOM     18  C   UNL     1      32.405 -13.114 -22.927  0.00  0.00    +0.016 C 
ATOM     19  C   UNL     1      33.063 -14.654 -21.185  0.00  0.00    +0.001 C 
ATOM     20  C   UNL     1      31.901 -12.240 -21.964  0.00  0.00    +0.085 C 
ATOM     21  C   UNL     1      32.558 -13.780 -20.222  0.00  0.00    +0.038 C 
ATOM     22  C   UNL     1      31.978 -12.573 -20.612  0.00  0.00    +0.147 C 
BRANCH  20  24
ATOM     23  O   UNL     1      33.161  -9.656 -22.933  0.00  0.00    -0.265 OA
ATOM     24  N   UNL     1      31.323 -11.035 -22.369  0.00  0.00    -0.274 N 
ATOM     25  C   UNL     1      31.966  -9.882 -22.805  0.00  0.00    +0.304 C 
ATOM     26  H   UNL     1      30.340 -10.997 -22.343  0.00  0.00    +0.155 HD
ENDBRANCH  20  24
BRANCH  22  27
ATOM     27  O   UNL     1      31.492 -11.732 -19.655  0.00  0.00    -0.504 OA
ATOM     28  H   UNL     1      30.766 -11.995 -19.124  0.00  0.00    +0.292 HD
ENDBRANCH  22  27
ENDBRANCH  16  17
BRANCH  16  29
ATOM     29  O   UNL     1      33.680 -14.533 -24.788  0.00  0.00    -0.382 OA
ATOM     30  H   UNL     1      33.670 -15.152 -25.534  0.00  0.00    +0.211 HD
ENDBRANCH  16  29
ENDBRANCH   1  16
TORSDOF 10
ENDMDL
MODEL 3
REMARK VINA RESULT:      -9.6      1.705      2.201
REMARK  Name = 3410
REMARK  10 active torsions:
REMARK  status: ('A' for Active; 'I' for Inactive)
REMARK    1  A    between atoms: C_1  and  N_2
REMARK    2  A    between atoms: C_1  and  C_16
REMARK    3  A    between atoms: N_2  and  C_5
REMARK    4  A    between atoms: C_5  and  C_7
REMARK    5  A    between atoms: C_7  and  C_8
REMARK    6  A    between atoms: C_13  and  O_14
REMARK    7  A    between atoms: C_16  and  C_17
REMARK    8  A    between atoms: C_16  and  O_29
REMARK    9  A    between atoms: C_20  and  N_24
REMARK   10  A    between atoms: C_22  and  O_27
REMARK                            x       y       z     vdW  Elec       q    Type
REMARK                         _______ _______ _______ _____ _____    ______ ____
ROOT
ATOM      1  C   UNL     1      34.597 -15.515 -20.921  0.00  0.00    -0.047 C 
ENDROOT
BRANCH   1   2
ATOM      2  N   UNL     1      34.902 -16.896 -20.587  0.00  0.00    +0.387 N 
ATOM      3  H   UNL     1      35.663 -16.916 -19.909  0.00  0.00    -0.084 HD
ATOM      4  H   UNL     1      34.068 -17.332 -20.195  0.00  0.00    -0.084 HD
BRANCH   2   5
ATOM      5  C   UNL     1      35.305 -17.640 -21.784  0.00  0.00    -0.057 C 
ATOM      6  C   UNL     1      35.340 -16.668 -22.965  0.00  0.00    -0.023 C 
BRANCH   5   7
ATOM      7  C   UNL     1      34.332 -18.811 -22.014  0.00  0.00    +0.005 C 
BRANCH   7   8
ATOM      8  C   UNL     1      34.435 -19.895 -20.967  0.00  0.00    -0.024 C 
ATOM      9  C   UNL     1      35.684 -20.365 -20.597  0.00  0.00    -0.001 C 
ATOM     10  C   UNL     1      33.276 -20.397 -20.395  0.00  0.00    -0.001 C 
ATOM     11  C   UNL     1      35.779 -21.365 -19.629  0.00  0.00    +0.037 C 
ATOM     12  C   UNL     1      33.371 -21.397 -19.427  0.00  0.00    +0.037 C 
ATOM     13  C   UNL     1      34.622 -21.881 -19.044  0.00  0.00    +0.139 C 
BRANCH  13  14
ATOM     14  O   UNL     1      34.714 -22.857 -18.100  0.00  0.00    -0.471 OA
ATOM     15  C   UNL     1      33.511 -23.221 -17.425  0.00  0.00    +0.252 C 
ENDBRANCH  13  14
ENDBRANCH   7   8
ENDBRANCH   5   7
ENDBRANCH   2   5
ENDBRANCH   1   2
BRANCH   1  16
ATOM     16  C   UNL     1      33.192 -15.135 -20.435  0.00  0.00    +0.112 C 
BRANCH  16  17
ATOM     17  C   UNL     1      32.716 -13.848 -21.073  0.00  0.00    +0.004 C 
ATOM     18  C   UNL     1      32.014 -12.934 -20.307  0.00  0.00    +0.016 C 
ATOM     19  C   UNL     1      32.993 -13.612 -22.408  0.00  0.00    +0.001 C 
ATOM     20  C   UNL     1      31.575 -11.747 -20.894  0.00  0.00    +0.085 C 
ATOM     21  C   UNL     1      32.555 -12.425 -22.996  0.00  0.00    +0.038 C 
ATOM     22  C   UNL     1      31.846 -11.493 -22.239  0.00  0.00    +0.147 C 
BRANCH  20  24
ATOM     23  O   UNL     1      32.533  -9.653 -18.919  0.00  0.00    -0.265 OA
ATOM     24  N   UNL     1      30.866 -10.823 -20.123  0.00  0.00    -0.274 N 
ATOM     25  C   UNL     1      31.374  -9.885 -19.232  0.00  0.00    +0.304 C 
ATOM     26  H   UNL     1      29.887 -10.838 -20.223  0.00  0.00    +0.155 HD
ENDBRANCH  20  24
BRANCH  22  27
ATOM     27  O   UNL     1      31.425 -10.340 -22.832  0.00  0.00    -0.504 OA
ATOM     28  H   UNL     1      30.531 -10.249 -23.098  0.00  0.00    +0.292 HD
ENDBRANCH  22  27
ENDBRANCH  16  17
BRANCH  16  29
ATOM     29  O   UNL     1      32.261 -16.166 -20.762  0.00  0.00    -0.382 OA
ATOM     30  H   UNL     1      32.737 -16.932 -21.117  0.00  0.00    +0.211 HD
ENDBRANCH  16  29
ENDBRANCH   1  16
TORSDOF 10
ENDMDL
MODEL 4
REMARK VINA RESULT:      -9.5      3.953     10.179
REMARK  Name = 3410
REMARK  10 active torsions:
REMARK  status: ('A' for Active; 'I' for Inactive)
REMARK    1  A    between atoms: C_1  and  N_2
REMARK    2  A    between atoms: C_1  and  C_16
REMARK    3  A    between atoms: N_2  and  C_5
REMARK    4  A    between atoms: C_5  and  C_7
REMARK    5  A    between atoms: C_7  and  C_8
REMARK    6  A    between atoms: C_13  and  O_14
REMARK    7  A    between atoms: C_16  and  C_17
REMARK    8  A    between atoms: C_16  and  O_29
REMARK    9  A    between atoms: C_20  and  N_24
REMARK   10  A    between atoms: C_22  and  O_27
REMARK                            x       y       z     vdW  Elec       q    Type
REMARK                         _______ _______ _______ _____ _____    ______ ____
ROOT
ATOM      1  C   UNL     1      35.122 -21.386 -19.651  0.00  0.00    -0.047 C 
ENDROOT
BRANCH   1   2
ATOM      2  N   UNL     1      34.597 -20.175 -20.259  0.00  0.00    +0.387 N 
ATOM      3  H   UNL     1      33.821 -20.418 -20.874  0.00  0.00    -0.084 HD
ATOM      4  H   UNL     1      34.280 -19.547 -19.521  0.00  0.00    -0.084 HD
BRANCH   2   5
ATOM      5  C   UNL     1      35.636 -19.498 -21.040  0.00  0.00    -0.057 C 
ATOM      6  C   UNL     1      36.996 -19.833 -20.425  0.00  0.00    -0.023 C 
BRANCH   5   7
ATOM      7  C   UNL     1      35.358 -17.984 -21.066  0.00  0.00    +0.005 C 
BRANCH   7   8
ATOM      8  C   UNL     1      34.999 -17.460 -22.436  0.00  0.00    -0.024 C 
ATOM      9  C   UNL     1      34.945 -18.338 -23.506  0.00  0.00    -0.001 C 
ATOM     10  C   UNL     1      34.728 -16.110 -22.597  0.00  0.00    -0.001 C 
ATOM     11  C   UNL     1      34.612 -17.854 -24.772  0.00  0.00    +0.037 C 
ATOM     12  C   UNL     1      34.395 -15.626 -23.862  0.00  0.00    +0.037 C 
ATOM     13  C   UNL     1      34.338 -16.498 -24.950  0.00  0.00    +0.139 C 
BRANCH  13  14
ATOM     14  O   UNL     1      34.013 -16.025 -26.184  0.00  0.00    -0.471 OA
ATOM     15  C   UNL     1      33.069 -14.958 -26.242  0.00  0.00    +0.252 C 
ENDBRANCH  13  14
ENDBRANCH   7   8
ENDBRANCH   5   7
ENDBRANCH   2   5
ENDBRANCH   1   2
BRANCH   1  16
ATOM     16  C   UNL     1      33.996 -22.392 -19.380  0.00  0.00    +0.112 C 
BRANCH  16  17
ATOM     17  C   UNL     1      33.881 -22.709 -17.905  0.00  0.00    +0.004 C 
ATOM     18  C   UNL     1      35.025 -22.733 -17.127  0.00  0.00    +0.016 C 
ATOM     19  C   UNL     1      32.633 -22.969 -17.365  0.00  0.00    +0.001 C 
ATOM     20  C   UNL     1      34.919 -23.026 -15.767  0.00  0.00    +0.085 C 
ATOM     21  C   UNL     1      32.527 -23.261 -16.005  0.00  0.00    +0.038 C 
ATOM     22  C   UNL     1      33.670 -23.290 -15.206  0.00  0.00    +0.147 C 
BRANCH  20  24
ATOM     23  O   UNL     1      36.939 -25.234 -15.268  0.00  0.00    -0.265 OA
ATOM     24  N   UNL     1      36.073 -23.051 -14.980  0.00  0.00    -0.274 N 
ATOM     25  C   UNL     1      36.959 -24.105 -14.797  0.00  0.00    +0.304 C 
ATOM     26  H   UNL     1      36.284 -22.220 -14.497  0.00  0.00    +0.155 HD
ENDBRANCH  20  24
BRANCH  22  27
ATOM     27  O   UNL     1      33.544 -23.579 -13.880  0.00  0.00    -0.504 OA
ATOM     28  H   UNL     1      33.200 -22.937 -13.291  0.00  0.00    +0.292 HD
ENDBRANCH  22  27
ENDBRANCH  16  17
BRANCH  16  29
ATOM     29  O   UNL     1      32.745 -21.865 -19.822  0.00  0.00    -0.382 OA
ATOM     30  H   UNL     1      32.437 -22.368 -20.591  0.00  0.00    +0.211 HD
ENDBRANCH  16  29
ENDBRANCH   1  16
TORSDOF 10
ENDMDL
MODEL 5
REMARK VINA RESULT:      -9.4      1.833      2.618
REMARK  Name = 3410
REMARK  10 active torsions:
REMARK  status: ('A' for Active; 'I' for Inactive)
REMARK    1  A    between atoms: C_1  and  N_2
REMARK    2  A    between atoms: C_1  and  C_16
REMARK    3  A    between atoms: N_2  and  C_5
REMARK    4  A    between atoms: C_5  and  C_7
REMARK    5  A    between atoms: C_7  and  C_8
REMARK    6  A    between atoms: C_13  and  O_14
REMARK    7  A    between atoms: C_16  and  C_17
REMARK    8  A    between atoms: C_16  and  O_29
REMARK    9  A    between atoms: C_20  and  N_24
REMARK   10  A    between atoms: C_22  and  O_27
REMARK                            x       y       z     vdW  Elec       q    Type
REMARK                         _______ _______ _______ _____ _____    ______ ____
ROOT
ATOM      1  C   UNL     1      34.490 -15.500 -21.013  0.00  0.00    -0.047 C 
ENDROOT
BRANCH   1   2
ATOM      2  N   UNL     1      34.738 -16.872 -20.603  0.00  0.00    +0.387 N 
ATOM      3  H   UNL     1      35.441 -16.879 -19.865  0.00  0.00    -0.084 HD
ATOM      4  H   UNL     1      33.866 -17.277 -20.264  0.00  0.00    -0.084 HD
BRANCH   2   5
ATOM      5  C   UNL     1      35.220 -17.670 -21.735  0.00  0.00    -0.057 C 
ATOM      6  C   UNL     1      35.328 -16.756 -22.956  0.00  0.00    -0.023 C 
BRANCH   5   7
ATOM      7  C   UNL     1      34.268 -18.857 -21.971  0.00  0.00    +0.005 C 
BRANCH   7   8
ATOM      8  C   UNL     1      34.381 -19.938 -20.922  0.00  0.00    -0.024 C 
ATOM      9  C   UNL     1      33.230 -20.435 -20.333  0.00  0.00    -0.001 C 
ATOM     10  C   UNL     1      35.634 -20.415 -20.571  0.00  0.00    -0.001 C 
ATOM     11  C   UNL     1      33.334 -21.435 -19.365  0.00  0.00    +0.037 C 
ATOM     12  C   UNL     1      35.738 -21.415 -19.604  0.00  0.00    +0.037 C 
ATOM     13  C   UNL     1      34.588 -21.924 -19.001  0.00  0.00    +0.139 C 
BRANCH  13  14
ATOM     14  O   UNL     1      34.691 -22.899 -18.057  0.00  0.00    -0.471 OA
ATOM     15  C   UNL     1      33.487 -23.303 -17.408  0.00  0.00    +0.252 C 
ENDBRANCH  13  14
ENDBRANCH   7   8
ENDBRANCH   5   7
ENDBRANCH   2   5
ENDBRANCH   1   2
BRANCH   1  16
ATOM     16  C   UNL     1      33.095 -15.043 -20.570  0.00  0.00    +0.112 C 
BRANCH  16  17
ATOM     17  C   UNL     1      32.723 -13.716 -21.195  0.00  0.00    +0.004 C 
ATOM     18  C   UNL     1      33.231 -13.389 -22.440  0.00  0.00    +0.016 C 
ATOM     19  C   UNL     1      31.882 -12.857 -20.508  0.00  0.00    +0.001 C 
ATOM     20  C   UNL     1      32.889 -12.166 -23.017  0.00  0.00    +0.085 C 
ATOM     21  C   UNL     1      31.539 -11.634 -21.085  0.00  0.00    +0.038 C 
ATOM     22  C   UNL     1      32.043 -11.289 -22.339  0.00  0.00    +0.147 C 
BRANCH  20  24
ATOM     23  O   UNL     1      34.764  -9.941 -23.876  0.00  0.00    -0.265 OA
ATOM     24  N   UNL     1      33.402 -11.835 -24.273  0.00  0.00    -0.274 N 
ATOM     25  C   UNL     1      34.263 -10.793 -24.596  0.00  0.00    +0.304 C 
ATOM     26  H   UNL     1      33.118 -12.408 -25.020  0.00  0.00    +0.155 HD
ENDBRANCH  20  24
BRANCH  22  27
ATOM     27  O   UNL     1      31.696 -10.088 -22.884  0.00  0.00    -0.504 OA
ATOM     28  H   UNL     1      32.215  -9.719 -23.571  0.00  0.00    +0.292 HD
ENDBRANCH  22  27
ENDBRANCH  16  17
BRANCH  16  29
ATOM     29  O   UNL     1      32.114 -16.006 -20.951  0.00  0.00    -0.382 OA
ATOM     30  H   UNL     1      31.790 -16.468 -20.162  0.00  0.00    +0.211 HD
ENDBRANCH  16  29
ENDBRANCH   1  16
TORSDOF 10
ENDMDL
MODEL 6
REMARK VINA RESULT:      -9.4      1.960      2.752
REMARK  Name = 3410
REMARK  10 active torsions:
REMARK  status: ('A' for Active; 'I' for Inactive)
REMARK    1  A    between atoms: C_1  and  N_2
REMARK    2  A    between atoms: C_1  and  C_16
REMARK    3  A    between atoms: N_2  and  C_5
REMARK    4  A    between atoms: C_5  and  C_7
REMARK    5  A    between atoms: C_7  and  C_8
REMARK    6  A    between atoms: C_13  and  O_14
REMARK    7  A    between atoms: C_16  and  C_17
REMARK    8  A    between atoms: C_16  and  O_29
REMARK    9  A    between atoms: C_20  and  N_24
REMARK   10  A    between atoms: C_22  and  O_27
REMARK                            x       y       z     vdW  Elec       q    Type
REMARK                         _______ _______ _______ _____ _____    ______ ____
ROOT
ATOM      1  C   UNL     1      34.368 -16.983 -21.947  0.00  0.00    -0.047 C 
ENDROOT
BRANCH   1   2
ATOM      2  N   UNL     1      35.480 -17.696 -22.552  0.00  0.00    +0.387 N 
ATOM      3  H   UNL     1      35.661 -17.311 -23.478  0.00  0.00    -0.084 HD
ATOM      4  H   UNL     1      36.302 -17.588 -21.958  0.00  0.00    -0.084 HD
BRANCH   2   5
ATOM      5  C   UNL     1      35.172 -19.124 -22.675  0.00  0.00    -0.057 C 
ATOM      6  C   UNL     1      34.848 -19.421 -24.140  0.00  0.00    -0.023 C 
BRANCH   5   7
ATOM      7  C   UNL     1      34.011 -19.484 -21.731  0.00  0.00    +0.005 C 
BRANCH   7   8
ATOM      8  C   UNL     1      34.420 -20.383 -20.587  0.00  0.00    -0.024 C 
ATOM      9  C   UNL     1      33.443 -21.056 -19.871  0.00  0.00    -0.001 C 
ATOM     10  C   UNL     1      35.764 -20.517 -20.277  0.00  0.00    -0.001 C 
ATOM     11  C   UNL     1      33.821 -21.887 -18.816  0.00  0.00    +0.037 C 
ATOM     12  C   UNL     1      36.141 -21.348 -19.222  0.00  0.00    +0.037 C 
ATOM     13  C   UNL     1      35.169 -22.032 -18.491  0.00  0.00    +0.139 C 
BRANCH  13  14
ATOM     14  O   UNL     1      35.539 -22.842 -17.462  0.00  0.00    -0.471 OA
ATOM     15  C   UNL     1      36.562 -22.361 -16.592  0.00  0.00    +0.252 C 
ENDBRANCH  13  14
ENDBRANCH   7   8
ENDBRANCH   5   7
ENDBRANCH   2   5
ENDBRANCH   1   2
BRANCH   1  16
ATOM     16  C   UNL     1      34.843 -15.672 -21.309  0.00  0.00    +0.112 C 
BRANCH  16  17
ATOM     17  C   UNL     1      33.923 -14.523 -21.655  0.00  0.00    +0.004 C 
ATOM     18  C   UNL     1      34.094 -13.858 -22.858  0.00  0.00    +0.016 C 
ATOM     19  C   UNL     1      32.928 -14.159 -20.763  0.00  0.00    +0.001 C 
ATOM     20  C   UNL     1      33.246 -12.798 -23.178  0.00  0.00    +0.085 C 
ATOM     21  C   UNL     1      32.079 -13.100 -21.084  0.00  0.00    +0.038 C 
ATOM     22  C   UNL     1      32.238 -12.419 -22.290  0.00  0.00    +0.147 C 
BRANCH  20  24
ATOM     23  O   UNL     1      34.646 -10.185 -23.822  0.00  0.00    -0.265 OA
ATOM     24  N   UNL     1      33.417 -12.126 -24.390  0.00  0.00    -0.274 N 
ATOM     25  C   UNL     1      34.076 -10.923 -24.614  0.00  0.00    +0.304 C 
ATOM     26  H   UNL     1      33.024 -12.557 -25.182  0.00  0.00    +0.155 HD
ENDBRANCH  20  24
BRANCH  22  27
ATOM     27  O   UNL     1      31.399 -11.386 -22.584  0.00  0.00    -0.504 OA
ATOM     28  H   UNL     1      31.660 -10.504 -22.404  0.00  0.00    +0.292 HD
ENDBRANCH  22  27
ENDBRANCH  16  17
BRANCH  16  29
ATOM     29  O   UNL     1      34.881 -15.800 -19.888  0.00  0.00    -0.382 OA
ATOM     30  H   UNL     1      34.023 -15.544 -19.517  0.00  0.00    +0.211 HD
ENDBRANCH  16  29
ENDBRANCH   1  16
TORSDOF 10
ENDMDL
MODEL 7
REMARK VINA RESULT:      -9.4      3.994     11.051
REMARK  Name = 3410
REMARK  10 active torsions:
REMARK  status: ('A' for Active; 'I' for Inactive)
REMARK    1  A    between atoms: C_1  and  N_2
REMARK    2  A    between atoms: C_1  and  C_16
REMARK    3  A    between atoms: N_2  and  C_5
REMARK    4  A    between atoms: C_5  and  C_7
REMARK    5  A    between atoms: C_7  and  C_8
REMARK    6  A    between atoms: C_13  and  O_14
REMARK    7  A    between atoms: C_16  and  C_17
REMARK    8  A    between atoms: C_16  and  O_29
REMARK    9  A    between atoms: C_20  and  N_24
REMARK   10  A    between atoms: C_22  and  O_27
REMARK                            x       y       z     vdW  Elec       q    Type
REMARK                         _______ _______ _______ _____ _____    ______ ____
ROOT
ATOM      1  C   UNL     1      34.233 -22.329 -18.386  0.00  0.00    -0.047 C 
ENDROOT
BRANCH   1   2
ATOM      2  N   UNL     1      33.959 -22.019 -19.778  0.00  0.00    +0.387 N 
ATOM      3  H   UNL     1      34.650 -22.484 -20.367  0.00  0.00    -0.084 HD
ATOM      4  H   UNL     1      33.021 -22.345 -20.010  0.00  0.00    -0.084 HD
BRANCH   2   5
ATOM      5  C   UNL     1      34.025 -20.573 -20.008  0.00  0.00    -0.057 C 
ATOM      6  C   UNL     1      32.731 -20.135 -20.695  0.00  0.00    -0.023 C 
BRANCH   5   7
ATOM      7  C   UNL     1      35.276 -20.240 -20.842  0.00  0.00    +0.005 C 
BRANCH   7   8
ATOM      8  C   UNL     1      35.121 -19.004 -21.696  0.00  0.00    -0.024 C 
ATOM      9  C   UNL     1      35.123 -17.757 -21.091  0.00  0.00    -0.001 C 
ATOM     10  C   UNL     1      34.980 -19.140 -23.068  0.00  0.00    -0.001 C 
ATOM     11  C   UNL     1      34.982 -16.615 -21.880  0.00  0.00    +0.037 C 
ATOM     12  C   UNL     1      34.839 -17.998 -23.856  0.00  0.00    +0.037 C 
ATOM     13  C   UNL     1      34.839 -16.736 -23.262  0.00  0.00    +0.139 C 
BRANCH  13  14
ATOM     14  O   UNL     1      34.700 -15.623 -24.033  0.00  0.00    -0.471 OA
ATOM     15  C   UNL     1      34.244 -14.437 -23.384  0.00  0.00    +0.252 C 
ENDBRANCH  13  14
ENDBRANCH   7   8
ENDBRANCH   5   7
ENDBRANCH   2   5
ENDBRANCH   1   2
BRANCH   1  16
ATOM     16  C   UNL     1      33.049 -23.068 -17.749  0.00  0.00    +0.112 C 
BRANCH  16  17
ATOM     17  C   UNL     1      33.360 -23.491 -16.330  0.00  0.00    +0.004 C 
ATOM     18  C   UNL     1      34.597 -24.041 -16.044  0.00  0.00    +0.016 C 
ATOM     19  C   UNL     1      32.400 -23.320 -15.348  0.00  0.00    +0.001 C 
ATOM     20  C   UNL     1      34.884 -24.432 -14.736  0.00  0.00    +0.085 C 
ATOM     21  C   UNL     1      32.686 -23.709 -14.039  0.00  0.00    +0.038 C 
ATOM     22  C   UNL     1      33.928 -24.266 -13.734  0.00  0.00    +0.147 C 
BRANCH  20  24
ATOM     23  O   UNL     1      36.274 -26.889 -15.847  0.00  0.00    -0.265 OA
ATOM     24  N   UNL     1      36.132 -24.988 -14.445  0.00  0.00    -0.274 N 
ATOM     25  C   UNL     1      36.711 -26.124 -14.997  0.00  0.00    +0.304 C 
ATOM     26  H   UNL     1      36.667 -24.517 -13.767  0.00  0.00    +0.155 HD
ENDBRANCH  20  24
BRANCH  22  27
ATOM     27  O   UNL     1      34.188 -24.641 -12.449  0.00  0.00    -0.504 OA
ATOM     28  H   UNL     1      35.069 -24.650 -12.132  0.00  0.00    +0.292 HD
ENDBRANCH  22  27
ENDBRANCH  16  17
BRANCH  16  29
ATOM     29  O   UNL     1      31.897 -22.226 -17.721  0.00  0.00    -0.382 OA
ATOM     30  H   UNL     1      31.728 -21.939 -16.811  0.00  0.00    +0.211 HD
ENDBRANCH  16  29
ENDBRANCH   1  16
TORSDOF 10
ENDMDL
MODEL 8
REMARK VINA RESULT:      -9.4      2.149      9.268
REMARK  Name = 3410
REMARK  10 active torsions:
REMARK  status: ('A' for Active; 'I' for Inactive)
REMARK    1  A    between atoms: C_1  and  N_2
REMARK    2  A    between atoms: C_1  and  C_16
REMARK    3  A    between atoms: N_2  and  C_5
REMARK    4  A    between atoms: C_5  and  C_7
REMARK    5  A    between atoms: C_7  and  C_8
REMARK    6  A    between atoms: C_13  and  O_14
REMARK    7  A    between atoms: C_16  and  C_17
REMARK    8  A    between atoms: C_16  and  O_29
REMARK    9  A    between atoms: C_20  and  N_24
REMARK   10  A    between atoms: C_22  and  O_27
REMARK                            x       y       z     vdW  Elec       q    Type
REMARK                         _______ _______ _______ _____ _____    ______ ____
ROOT
ATOM      1  C   UNL     1      35.285 -16.863 -21.645  0.00  0.00    -0.047 C 
ENDROOT
BRANCH   1   2
ATOM      2  N   UNL     1      34.782 -16.027 -22.723  0.00  0.00    +0.387 N 
ATOM      3  H   UNL     1      35.569 -15.606 -23.215  0.00  0.00    -0.084 HD
ATOM      4  H   UNL     1      34.236 -16.606 -23.360  0.00  0.00    -0.084 HD
BRANCH   2   5
ATOM      5  C   UNL     1      33.921 -14.965 -22.194  0.00  0.00    -0.057 C 
ATOM      6  C   UNL     1      33.053 -15.558 -21.084  0.00  0.00    -0.023 C 
BRANCH   5   7
ATOM      7  C   UNL     1      33.085 -14.363 -23.337  0.00  0.00    +0.005 C 
BRANCH   7   8
ATOM      8  C   UNL     1      32.902 -12.867 -23.229  0.00  0.00    -0.024 C 
ATOM      9  C   UNL     1      32.002 -12.359 -22.306  0.00  0.00    -0.001 C 
ATOM     10  C   UNL     1      33.640 -12.032 -24.052  0.00  0.00    -0.001 C 
ATOM     11  C   UNL     1      31.835 -10.978 -22.204  0.00  0.00    +0.037 C 
ATOM     12  C   UNL     1      33.473 -10.651 -23.951  0.00  0.00    +0.037 C 
ATOM     13  C   UNL     1      32.570 -10.124 -23.027  0.00  0.00    +0.139 C 
BRANCH  13  14
ATOM     14  O   UNL     1      32.407  -8.776 -22.929  0.00  0.00    -0.471 OA
ATOM     15  C   UNL     1      32.083  -8.254 -21.641  0.00  0.00    +0.252 C 
ENDBRANCH  13  14
ENDBRANCH   7   8
ENDBRANCH   5   7
ENDBRANCH   2   5
ENDBRANCH   1   2
BRANCH   1  16
ATOM     16  C   UNL     1      35.539 -18.293 -22.138  0.00  0.00    +0.112 C 
BRANCH  16  17
ATOM     17  C   UNL     1      34.831 -19.311 -21.271  0.00  0.00    +0.004 C 
ATOM     18  C   UNL     1      35.581 -20.212 -20.536  0.00  0.00    +0.016 C 
ATOM     19  C   UNL     1      33.447 -19.320 -21.232  0.00  0.00    +0.001 C 
ATOM     20  C   UNL     1      34.928 -21.150 -19.736  0.00  0.00    +0.085 C 
ATOM     21  C   UNL     1      32.794 -20.258 -20.433  0.00  0.00    +0.038 C 
ATOM     22  C   UNL     1      33.535 -21.173 -19.686  0.00  0.00    +0.147 C 
BRANCH  20  24
ATOM     23  O   UNL     1      37.022 -20.710 -17.585  0.00  0.00    -0.265 OA
ATOM     24  N   UNL     1      35.684 -22.061 -18.994  0.00  0.00    -0.274 N 
ATOM     25  C   UNL     1      36.632 -21.787 -18.016  0.00  0.00    +0.304 C 
ATOM     26  H   UNL     1      35.525 -23.012 -19.187  0.00  0.00    +0.155 HD
ENDBRANCH  20  24
BRANCH  22  27
ATOM     27  O   UNL     1      32.877 -22.083 -18.912  0.00  0.00    -0.504 OA
ATOM     28  H   UNL     1      31.945 -22.161 -18.969  0.00  0.00    +0.292 HD
ENDBRANCH  22  27
ENDBRANCH  16  17
BRANCH  16  29
ATOM     29  O   UNL     1      35.072 -18.445 -23.478  0.00  0.00    -0.382 OA
ATOM     30  H   UNL     1      34.938 -17.571 -23.875  0.00  0.00    +0.211 HD
ENDBRANCH  16  29
ENDBRANCH   1  16
TORSDOF 10
ENDMDL
MODEL 9
REMARK VINA RESULT:      -9.3      5.765     12.332
REMARK  Name = 3410
REMARK  10 active torsions:
REMARK  status: ('A' for Active; 'I' for Inactive)
REMARK    1  A    between atoms: C_1  and  N_2
REMARK    2  A    between atoms: C_1  and  C_16
REMARK    3  A    between atoms: N_2  and  C_5
REMARK    4  A    between atoms: C_5  and  C_7
REMARK    5  A    between atoms: C_7  and  C_8
REMARK    6  A    between atoms: C_13  and  O_14
REMARK    7  A    between atoms: C_16  and  C_17
REMARK    8  A    between atoms: C_16  and  O_29
REMARK    9  A    between atoms: C_20  and  N_24
REMARK   10  A    between atoms: C_22  and  O_27
REMARK                            x       y       z     vdW  Elec       q    Type
REMARK                         _______ _______ _______ _____ _____    ______ ____
ROOT
ATOM      1  C   UNL     1      33.443 -23.401 -14.904  0.00  0.00    -0.047 C 
ENDROOT
BRANCH   1   2
ATOM      2  N   UNL     1      33.984 -23.429 -16.252  0.00  0.00    +0.387 N 
ATOM      3  H   UNL     1      34.907 -22.996 -16.252  0.00  0.00    -0.084 HD
ATOM      4  H   UNL     1      34.048 -24.399 -16.560  0.00  0.00    -0.084 HD
BRANCH   2   5
ATOM      5  C   UNL     1      33.109 -22.699 -17.174  0.00  0.00    -0.057 C 
ATOM      6  C   UNL     1      31.659 -23.069 -16.858  0.00  0.00    -0.023 C 
BRANCH   5   7
ATOM      7  C   UNL     1      33.498 -23.032 -18.626  0.00  0.00    +0.005 C 
BRANCH   7   8
ATOM      8  C   UNL     1      34.164 -21.885 -19.351  0.00  0.00    -0.024 C 
ATOM      9  C   UNL     1      33.378 -20.933 -19.980  0.00  0.00    -0.001 C 
ATOM     10  C   UNL     1      35.547 -21.807 -19.371  0.00  0.00    -0.001 C 
ATOM     11  C   UNL     1      33.993 -19.874 -20.648  0.00  0.00    +0.037 C 
ATOM     12  C   UNL     1      36.162 -20.747 -20.038  0.00  0.00    +0.037 C 
ATOM     13  C   UNL     1      35.384 -19.781 -20.677  0.00  0.00    +0.139 C 
BRANCH  13  14
ATOM     14  O   UNL     1      35.984 -18.748 -21.329  0.00  0.00    -0.471 OA
ATOM     15  C   UNL     1      35.218 -17.557 -21.503  0.00  0.00    +0.252 C 
ENDBRANCH  13  14
ENDBRANCH   7   8
ENDBRANCH   5   7
ENDBRANCH   2   5
ENDBRANCH   1   2
BRANCH   1  16
ATOM     16  C   UNL     1      33.950 -24.597 -14.088  0.00  0.00    +0.112 C 
BRANCH  16  17
ATOM     17  C   UNL     1      35.284 -24.298 -13.439  0.00  0.00    +0.004 C 
ATOM     18  C   UNL     1      36.450 -24.597 -14.122  0.00  0.00    +0.016 C 
ATOM     19  C   UNL     1      35.310 -23.732 -12.177  0.00  0.00    +0.001 C 
ATOM     20  C   UNL     1      37.680 -24.322 -13.525  0.00  0.00    +0.085 C 
ATOM     21  C   UNL     1      36.540 -23.456 -11.579  0.00  0.00    +0.038 C 
ATOM     22  C   UNL     1      37.724 -23.751 -12.253  0.00  0.00    +0.147 C 
BRANCH  20  24
ATOM     23  O   UNL     1      38.780 -26.970 -14.518  0.00  0.00    -0.265 OA
ATOM     24  N   UNL     1      38.858 -24.624 -14.212  0.00  0.00    -0.274 N 
ATOM     25  C   UNL     1      39.302 -25.870 -14.640  0.00  0.00    +0.304 C 
ATOM     26  H   UNL     1      39.444 -23.862 -14.419  0.00  0.00    +0.155 HD
ENDBRANCH  20  24
BRANCH  22  27
ATOM     27  O   UNL     1      38.916 -23.475 -11.651  0.00  0.00    -0.504 OA
ATOM     28  H   UNL     1      39.428 -22.745 -11.938  0.00  0.00    +0.292 HD
ENDBRANCH  22  27
ENDBRANCH  16  17
BRANCH  16  29
ATOM     29  O   UNL     1      33.017 -24.924 -13.059  0.00  0.00    -0.382 OA
ATOM     30  H   UNL     1      32.242 -24.345 -13.128  0.00  0.00    +0.211 HD
ENDBRANCH  16  29
ENDBRANCH   1  16
TORSDOF 10
ENDMDL
