MODEL 1
REMARK VINA RESULT:      -4.5      0.000      0.000
REMARK  Name = 17753810
REMARK  3 active torsions:
REMARK  status: ('A' for Active; 'I' for Inactive)
REMARK    1  A    between atoms: CA_1  and  N_2
REMARK    2  A    between atoms: CA_1  and  C_8
REMARK    3  A    between atoms: CA_1  and  C_9
REMARK                            x       y       z     vdW  Elec       q    Type
REMARK                         _______ _______ _______ _____ _____    ______ ____
ROOT
ATOM      1  CA  UNL     1      38.811 -25.121 -14.388  0.00  0.00    +0.063 C 
ENDROOT
BRANCH   1   2
ATOM      2  N   UNL     1      37.842 -25.809 -15.295  0.00  0.00    +0.391 N 
ATOM      3  H1  UNL     1      37.339 -26.529 -14.773  0.00  0.00    -0.088 HD
ATOM      4  H2  UNL     1      38.347 -26.242 -16.068  0.00  0.00    -0.088 HD
ATOM      5  H3  UNL     1      37.176 -25.129 -15.662  0.00  0.00    -0.088 HD
ENDBRANCH   1   2
BRANCH   1   8
ATOM      6  O   UNL     1      40.402 -26.869 -14.601  0.00  0.00    -0.248 OA
ATOM      7  OXT UNL     1      41.123 -24.700 -14.612  0.00  0.00    -0.248 OA
ATOM      8  C   UNL     1      40.252 -25.616 -14.551  0.00  0.00    +0.349 C 
ENDBRANCH   1   8
BRANCH   1   9
ATOM      9  C   UNL     1      38.451 -25.301 -12.941  0.00  0.00    -0.037 C 
ATOM     10  C   UNL     1      38.160 -24.290 -12.114  0.00  0.00    -0.007 C 
ENDBRANCH   1   9
TORSDOF 3
ENDMDL
MODEL 2
REMARK VINA RESULT:      -4.4     10.862     11.196
REMARK  Name = 17753810
REMARK  3 active torsions:
REMARK  status: ('A' for Active; 'I' for Inactive)
REMARK    1  A    between atoms: CA_1  and  N_2
REMARK    2  A    between atoms: CA_1  and  C_8
REMARK    3  A    between atoms: CA_1  and  C_9
REMARK                            x       y       z     vdW  Elec       q    Type
REMARK                         _______ _______ _______ _____ _____    ______ ____
ROOT
ATOM      1  CA  UNL     1      28.985 -23.152 -15.824  0.00  0.00    +0.063 C 
ENDROOT
BRANCH   1   2
ATOM      2  N   UNL     1      28.875 -24.525 -15.243  0.00  0.00    +0.391 N 
ATOM      3  H1  UNL     1      28.115 -25.028 -15.702  0.00  0.00    -0.088 HD
ATOM      4  H2  UNL     1      28.682 -24.458 -14.244  0.00  0.00    -0.088 HD
ATOM      5  H3  UNL     1      29.751 -25.027 -15.388  0.00  0.00    -0.088 HD
ENDBRANCH   1   2
BRANCH   1   8
ATOM      6  O   UNL     1      27.616 -21.694 -17.100  0.00  0.00    -0.248 OA
ATOM      7  OXT UNL     1      27.668 -23.917 -17.627  0.00  0.00    -0.248 OA
ATOM      8  C   UNL     1      27.993 -22.891 -16.962  0.00  0.00    +0.349 C 
ENDBRANCH   1   8
BRANCH   1   9
ATOM      9  C   UNL     1      30.357 -22.883 -16.374  0.00  0.00    -0.037 C 
ATOM     10  C   UNL     1      31.489 -23.280 -15.781  0.00  0.00    -0.007 C 
ENDBRANCH   1   9
TORSDOF 3
ENDMDL
MODEL 3
REMARK VINA RESULT:      -4.4      7.859      8.420
REMARK  Name = 17753810
REMARK  3 active torsions:
REMARK  status: ('A' for Active; 'I' for Inactive)
REMARK    1  A    between atoms: CA_1  and  N_2
REMARK    2  A    between atoms: CA_1  and  C_8
REMARK    3  A    between atoms: CA_1  and  C_9
REMARK                            x       y       z     vdW  Elec       q    Type
REMARK                         _______ _______ _______ _____ _____    ______ ____
ROOT
ATOM      1  CA  UNL     1      34.083 -21.886 -19.516  0.00  0.00    +0.063 C 
ENDROOT
BRANCH   1   2
ATOM      2  N   UNL     1      32.857 -22.228 -18.732  0.00  0.00    +0.391 N 
ATOM      3  H1  UNL     1      32.574 -23.186 -18.944  0.00  0.00    -0.088 HD
ATOM      4  H2  UNL     1      32.104 -21.588 -18.983  0.00  0.00    -0.088 HD
ATOM      5  H3  UNL     1      33.056 -22.145 -17.735  0.00  0.00    -0.088 HD
ENDBRANCH   1   2
BRANCH   1   8
ATOM      6  O   UNL     1      36.214 -20.969 -19.014  0.00  0.00    -0.248 OA
ATOM      7  OXT UNL     1      35.386 -22.644 -17.698  0.00  0.00    -0.248 OA
ATOM      8  C   UNL     1      35.353 -21.823 -18.660  0.00  0.00    +0.349 C 
ENDBRANCH   1   8
BRANCH   1   9
ATOM      9  C   UNL     1      33.957 -20.557 -20.204  0.00  0.00    -0.037 C 
ATOM     10  C   UNL     1      32.789 -20.005 -20.552  0.00  0.00    -0.007 C 
ENDBRANCH   1   9
TORSDOF 3
ENDMDL
MODEL 4
REMARK VINA RESULT:      -4.3     10.124     10.390
REMARK  Name = 17753810
REMARK  3 active torsions:
REMARK  status: ('A' for Active; 'I' for Inactive)
REMARK    1  A    between atoms: CA_1  and  N_2
REMARK    2  A    between atoms: CA_1  and  C_8
REMARK    3  A    between atoms: CA_1  and  C_9
REMARK                            x       y       z     vdW  Elec       q    Type
REMARK                         _______ _______ _______ _____ _____    ______ ____
ROOT
ATOM      1  CA  UNL     1      35.264 -19.800 -21.092  0.00  0.00    +0.063 C 
ENDROOT
BRANCH   1   2
ATOM      2  N   UNL     1      35.959 -20.365 -19.895  0.00  0.00    +0.391 N 
ATOM      3  H1  UNL     1      36.043 -19.643 -19.178  0.00  0.00    -0.088 HD
ATOM      4  H2  UNL     1      36.888 -20.688 -20.163  0.00  0.00    -0.088 HD
ATOM      5  H3  UNL     1      35.420 -21.148 -19.527  0.00  0.00    -0.088 HD
ENDBRANCH   1   2
BRANCH   1   8
ATOM      6  O   UNL     1      35.347 -17.476 -20.618  0.00  0.00    -0.248 OA
ATOM      7  OXT UNL     1      36.374 -18.266 -22.501  0.00  0.00    -0.248 OA
ATOM      8  C   UNL     1      35.704 -18.372 -21.433  0.00  0.00    +0.349 C 
ENDBRANCH   1   8
BRANCH   1   9
ATOM      9  C   UNL     1      33.773 -19.762 -20.910  0.00  0.00    -0.037 C 
ATOM     10  C   UNL     1      33.106 -20.550 -20.058  0.00  0.00    -0.007 C 
ENDBRANCH   1   9
TORSDOF 3
ENDMDL
MODEL 5
REMARK VINA RESULT:      -4.3     10.350     10.760
REMARK  Name = 17753810
REMARK  3 active torsions:
REMARK  status: ('A' for Active; 'I' for Inactive)
REMARK    1  A    between atoms: CA_1  and  N_2
REMARK    2  A    between atoms: CA_1  and  C_8
REMARK    3  A    between atoms: CA_1  and  C_9
REMARK                            x       y       z     vdW  Elec       q    Type
REMARK                         _______ _______ _______ _____ _____    ______ ____
ROOT
ATOM      1  CA  UNL     1      42.305 -15.670 -17.850  0.00  0.00    +0.063 C 
ENDROOT
BRANCH   1   2
ATOM      2  N   UNL     1      42.311 -16.366 -19.174  0.00  0.00    +0.391 N 
ATOM      3  H1  UNL     1      42.905 -17.195 -19.120  0.00  0.00    -0.088 HD
ATOM      4  H2  UNL     1      42.674 -15.735 -19.888  0.00  0.00    -0.088 HD
ATOM      5  H3  UNL     1      41.361 -16.645 -19.416  0.00  0.00    -0.088 HD
ENDBRANCH   1   2
BRANCH   1   8
ATOM      6  O   UNL     1      41.429 -17.713 -17.019  0.00  0.00    -0.248 OA
ATOM      7  OXT UNL     1      41.949 -16.044 -15.547  0.00  0.00    -0.248 OA
ATOM      8  C   UNL     1      41.850 -16.568 -16.694  0.00  0.00    +0.349 C 
ENDBRANCH   1   8
BRANCH   1   9
ATOM      9  C   UNL     1      41.400 -14.471 -17.851  0.00  0.00    -0.037 C 
ATOM     10  C   UNL     1      41.820 -13.220 -17.631  0.00  0.00    -0.007 C 
ENDBRANCH   1   9
TORSDOF 3
ENDMDL
MODEL 6
REMARK VINA RESULT:      -4.3     11.682     12.360
REMARK  Name = 17753810
REMARK  3 active torsions:
REMARK  status: ('A' for Active; 'I' for Inactive)
REMARK    1  A    between atoms: CA_1  and  N_2
REMARK    2  A    between atoms: CA_1  and  C_8
REMARK    3  A    between atoms: CA_1  and  C_9
REMARK                            x       y       z     vdW  Elec       q    Type
REMARK                         _______ _______ _______ _____ _____    ______ ____
ROOT
ATOM      1  CA  UNL     1      34.689 -17.288 -22.535  0.00  0.00    +0.063 C 
ENDROOT
BRANCH   1   2
ATOM      2  N   UNL     1      35.507 -16.487 -23.496  0.00  0.00    +0.391 N 
ATOM      3  H1  UNL     1      35.527 -16.959 -24.401  0.00  0.00    -0.088 HD
ATOM      4  H2  UNL     1      36.458 -16.395 -23.140  0.00  0.00    -0.088 HD
ATOM      5  H3  UNL     1      35.094 -15.561 -23.606  0.00  0.00    -0.088 HD
ENDBRANCH   1   2
BRANCH   1   8
ATOM      6  O   UNL     1      34.940 -16.060 -20.519  0.00  0.00    -0.248 OA
ATOM      7  OXT UNL     1      35.737 -18.199 -20.626  0.00  0.00    -0.248 OA
ATOM      8  C   UNL     1      35.166 -17.167 -21.083  0.00  0.00    +0.349 C 
ENDBRANCH   1   8
BRANCH   1   9
ATOM      9  C   UNL     1      34.697 -18.752 -22.874  0.00  0.00    -0.037 C 
ATOM     10  C   UNL     1      34.864 -19.229 -24.112  0.00  0.00    -0.007 C 
ENDBRANCH   1   9
TORSDOF 3
ENDMDL
MODEL 7
REMARK VINA RESULT:      -4.2      4.411      4.989
REMARK  Name = 17753810
REMARK  3 active torsions:
REMARK  status: ('A' for Active; 'I' for Inactive)
REMARK    1  A    between atoms: CA_1  and  N_2
REMARK    2  A    between atoms: CA_1  and  C_8
REMARK    3  A    between atoms: CA_1  and  C_9
REMARK                            x       y       z     vdW  Elec       q    Type
REMARK                         _______ _______ _______ _____ _____    ______ ____
ROOT
ATOM      1  CA  UNL     1      36.740 -23.312 -11.758  0.00  0.00    +0.063 C 
ENDROOT
BRANCH   1   2
ATOM      2  N   UNL     1      38.191 -23.648 -11.626  0.00  0.00    +0.391 N 
ATOM      3  H1  UNL     1      38.466 -24.272 -12.385  0.00  0.00    -0.088 HD
ATOM      4  H2  UNL     1      38.353 -24.111 -10.732  0.00  0.00    -0.088 HD
ATOM      5  H3  UNL     1      38.744 -22.793 -11.671  0.00  0.00    -0.088 HD
ENDBRANCH   1   2
BRANCH   1   8
ATOM      6  O   UNL     1      34.965 -24.881 -11.614  0.00  0.00    -0.248 OA
ATOM      7  OXT UNL     1      36.043 -24.242  -9.702  0.00  0.00    -0.248 OA
ATOM      8  C   UNL     1      35.825 -24.238 -10.949  0.00  0.00    +0.349 C 
ENDBRANCH   1   8
BRANCH   1   9
ATOM      9  C   UNL     1      36.275 -23.382 -13.185  0.00  0.00    -0.037 C 
ATOM     10  C   UNL     1      37.080 -23.651 -14.218  0.00  0.00    -0.007 C 
ENDBRANCH   1   9
TORSDOF 3
ENDMDL
MODEL 8
REMARK VINA RESULT:      -4.2     10.673     11.054
REMARK  Name = 17753810
REMARK  3 active torsions:
REMARK  status: ('A' for Active; 'I' for Inactive)
REMARK    1  A    between atoms: CA_1  and  N_2
REMARK    2  A    between atoms: CA_1  and  C_8
REMARK    3  A    between atoms: CA_1  and  C_9
REMARK                            x       y       z     vdW  Elec       q    Type
REMARK                         _______ _______ _______ _____ _____    ______ ____
ROOT
ATOM      1  CA  UNL     1      41.229 -14.874 -16.368  0.00  0.00    +0.063 C 
ENDROOT
BRANCH   1   2
ATOM      2  N   UNL     1      40.473 -14.733 -15.086  0.00  0.00    +0.391 N 
ATOM      3  H1  UNL     1      40.253 -15.659 -14.716  0.00  0.00    -0.088 HD
ATOM      4  H2  UNL     1      39.608 -14.221 -15.256  0.00  0.00    -0.088 HD
ATOM      5  H3  UNL     1      41.042 -14.223 -14.409  0.00  0.00    -0.088 HD
ENDBRANCH   1   2
BRANCH   1   8
ATOM      6  O   UNL     1      41.267 -17.218 -16.739  0.00  0.00    -0.248 OA
ATOM      7  OXT UNL     1      43.230 -16.126 -16.314  0.00  0.00    -0.248 OA
ATOM      8  C   UNL     1      41.979 -16.205 -16.487  0.00  0.00    +0.349 C 
ENDBRANCH   1   8
BRANCH   1   9
ATOM      9  C   UNL     1      42.249 -13.784 -16.541  0.00  0.00    -0.037 C 
ATOM     10  C   UNL     1      42.110 -12.763 -17.394  0.00  0.00    -0.007 C 
ENDBRANCH   1   9
TORSDOF 3
ENDMDL
MODEL 9
REMARK VINA RESULT:      -4.2      2.392      2.804
REMARK  Name = 17753810
REMARK  3 active torsions:
REMARK  status: ('A' for Active; 'I' for Inactive)
REMARK    1  A    between atoms: CA_1  and  N_2
REMARK    2  A    between atoms: CA_1  and  C_8
REMARK    3  A    between atoms: CA_1  and  C_9
REMARK                            x       y       z     vdW  Elec       q    Type
REMARK                         _______ _______ _______ _____ _____    ______ ____
ROOT
ATOM      1  CA  UNL     1      36.968 -25.258 -14.286  0.00  0.00    +0.063 C 
ENDROOT
BRANCH   1   2
ATOM      2  N   UNL     1      35.734 -25.268 -13.442  0.00  0.00    +0.391 N 
ATOM      3  H1  UNL     1      35.975 -25.539 -12.488  0.00  0.00    -0.088 HD
ATOM      4  H2  UNL     1      35.065 -25.937 -13.825  0.00  0.00    -0.088 HD
ATOM      5  H3  UNL     1      35.318 -24.337 -13.436  0.00  0.00    -0.088 HD
ENDBRANCH   1   2
BRANCH   1   8
ATOM      6  O   UNL     1      36.330 -26.903 -15.873  0.00  0.00    -0.248 OA
ATOM      7  OXT UNL     1      38.266 -27.188 -14.692  0.00  0.00    -0.248 OA
ATOM      8  C   UNL     1      37.209 -26.578 -15.026  0.00  0.00    +0.349 C 
ENDBRANCH   1   8
BRANCH   1   9
ATOM      9  C   UNL     1      38.201 -24.985 -13.473  0.00  0.00    -0.037 C 
ATOM     10  C   UNL     1      38.182 -24.451 -12.246  0.00  0.00    -0.007 C 
ENDBRANCH   1   9
TORSDOF 3
ENDMDL
