MODEL 1
REMARK VINA RESULT:      -6.1      0.000      0.000
REMARK  Name = 439811
REMARK  6 active torsions:
REMARK  status: ('A' for Active; 'I' for Inactive)
REMARK    1  A    between atoms: C_1  and  P_2
REMARK    2  A    between atoms: C_1  and  C_9
REMARK    3  A    between atoms: P_2  and  O_4
REMARK    4  A    between atoms: P_2  and  O_6
REMARK    5  A    between atoms: C_9  and  C_11
REMARK    6  A    between atoms: C_11  and  O_12
REMARK                            x       y       z     vdW  Elec       q    Type
REMARK                         _______ _______ _______ _____ _____    ______ ____
ROOT
ATOM      1  C   UNL     1      37.950 -25.023 -15.058  0.00  0.00    +0.191 C 
ENDROOT
BRANCH   1   2
ATOM      2  P   UNL     1      36.792 -26.404 -14.968  0.00  0.00    +0.345 P 
ATOM      3  O   UNL     1      36.857 -27.318 -16.141  0.00  0.00    -0.258 OA
BRANCH   2   4
ATOM      4  O   UNL     1      35.383 -25.663 -14.721  0.00  0.00    -0.323 OA
ATOM      5  H   UNL     1      35.503 -24.704 -14.810  0.00  0.00    +0.220 HD
ENDBRANCH   2   4
BRANCH   2   6
ATOM      6  O   UNL     1      37.141 -27.059 -13.538  0.00  0.00    -0.323 OA
ATOM      7  H   UNL     1      37.930 -27.617 -13.623  0.00  0.00    +0.220 HD
ENDBRANCH   2   6
ENDBRANCH   1   2
BRANCH   1   9
ATOM      8  O   UNL     1      39.277 -24.792 -13.044  0.00  0.00    -0.284 OA
ATOM      9  C   UNL     1      39.161 -25.202 -14.188  0.00  0.00    +0.260 C 
BRANCH   9  11
ATOM     10  O   UNL     1      41.122 -26.550 -14.102  0.00  0.00    -0.242 OA
ATOM     11  C   UNL     1      40.330 -25.933 -14.786  0.00  0.00    +0.374 C 
BRANCH  11  12
ATOM     12  O   UNL     1      40.299 -25.834 -16.121  0.00  0.00    -0.475 OA
ATOM     13  H   UNL     1      40.066 -25.021 -16.525  0.00  0.00    +0.295 HD
ENDBRANCH  11  12
ENDBRANCH   9  11
ENDBRANCH   1   9
TORSDOF 6
ENDMDL
MODEL 2
REMARK VINA RESULT:      -5.9      1.896      2.794
REMARK  Name = 439811
REMARK  6 active torsions:
REMARK  status: ('A' for Active; 'I' for Inactive)
REMARK    1  A    between atoms: C_1  and  P_2
REMARK    2  A    between atoms: C_1  and  C_9
REMARK    3  A    between atoms: P_2  and  O_4
REMARK    4  A    between atoms: P_2  and  O_6
REMARK    5  A    between atoms: C_9  and  C_11
REMARK    6  A    between atoms: C_11  and  O_12
REMARK                            x       y       z     vdW  Elec       q    Type
REMARK                         _______ _______ _______ _____ _____    ______ ____
ROOT
ATOM      1  C   UNL     1      37.698 -24.698 -14.249  0.00  0.00    +0.191 C 
ENDROOT
BRANCH   1   2
ATOM      2  P   UNL     1      37.330 -24.493 -12.494  0.00  0.00    +0.345 P 
ATOM      3  O   UNL     1      36.143 -23.634 -12.227  0.00  0.00    -0.258 OA
BRANCH   2   4
ATOM      4  O   UNL     1      38.733 -23.970 -11.902  0.00  0.00    -0.323 OA
ATOM      5  H   UNL     1      39.397 -24.673 -11.979  0.00  0.00    +0.220 HD
ENDBRANCH   2   4
BRANCH   2   6
ATOM      6  O   UNL     1      37.234 -26.016 -11.979  0.00  0.00    -0.323 OA
ATOM      7  H   UNL     1      36.638 -26.516 -12.558  0.00  0.00    +0.220 HD
ENDBRANCH   2   6
ENDBRANCH   1   2
BRANCH   1   9
ATOM      8  O   UNL     1      38.383 -27.008 -14.506  0.00  0.00    -0.284 OA
ATOM      9  C   UNL     1      38.657 -25.818 -14.531  0.00  0.00    +0.260 C 
BRANCH   9  11
ATOM     10  O   UNL     1      40.755 -24.781 -14.093  0.00  0.00    -0.242 OA
ATOM     11  C   UNL     1      40.075 -25.439 -14.855  0.00  0.00    +0.374 C 
BRANCH  11  12
ATOM     12  O   UNL     1      40.437 -25.976 -16.026  0.00  0.00    -0.475 OA
ATOM     13  H   UNL     1      41.055 -26.680 -16.049  0.00  0.00    +0.295 HD
ENDBRANCH  11  12
ENDBRANCH   9  11
ENDBRANCH   1   9
TORSDOF 6
ENDMDL
MODEL 3
REMARK VINA RESULT:      -5.7      2.652      3.727
REMARK  Name = 439811
REMARK  6 active torsions:
REMARK  status: ('A' for Active; 'I' for Inactive)
REMARK    1  A    between atoms: C_1  and  P_2
REMARK    2  A    between atoms: C_1  and  C_9
REMARK    3  A    between atoms: P_2  and  O_4
REMARK    4  A    between atoms: P_2  and  O_6
REMARK    5  A    between atoms: C_9  and  C_11
REMARK    6  A    between atoms: C_11  and  O_12
REMARK                            x       y       z     vdW  Elec       q    Type
REMARK                         _______ _______ _______ _____ _____    ______ ____
ROOT
ATOM      1  C   UNL     1      37.669 -25.175 -12.424  0.00  0.00    +0.191 C 
ENDROOT
BRANCH   1   2
ATOM      2  P   UNL     1      37.002 -23.716 -11.597  0.00  0.00    +0.345 P 
ATOM      3  O   UNL     1      36.431 -23.999 -10.251  0.00  0.00    -0.258 OA
BRANCH   2   4
ATOM      4  O   UNL     1      35.980 -23.129 -12.694  0.00  0.00    -0.323 OA
ATOM      5  H   UNL     1      35.184 -22.798 -12.249  0.00  0.00    +0.220 HD
ENDBRANCH   2   4
BRANCH   2   6
ATOM      6  O   UNL     1      38.246 -22.694 -11.638  0.00  0.00    -0.323 OA
ATOM      7  H   UNL     1      38.864 -22.908 -10.922  0.00  0.00    +0.220 HD
ENDBRANCH   2   6
ENDBRANCH   1   2
BRANCH   1   9
ATOM      8  O   UNL     1      38.283 -23.904 -14.393  0.00  0.00    -0.284 OA
ATOM      9  C   UNL     1      37.942 -24.961 -13.885  0.00  0.00    +0.260 C 
BRANCH   9  11
ATOM     10  O   UNL     1      38.427 -27.153 -14.676  0.00  0.00    -0.242 OA
ATOM     11  C   UNL     1      37.762 -26.143 -14.794  0.00  0.00    +0.374 C 
BRANCH  11  12
ATOM     12  O   UNL     1      36.764 -25.912 -15.656  0.00  0.00    -0.475 OA
ATOM     13  H   UNL     1      36.260 -26.626 -15.992  0.00  0.00    +0.295 HD
ENDBRANCH  11  12
ENDBRANCH   9  11
ENDBRANCH   1   9
TORSDOF 6
ENDMDL
MODEL 4
REMARK VINA RESULT:      -5.7      2.432      3.994
REMARK  Name = 439811
REMARK  6 active torsions:
REMARK  status: ('A' for Active; 'I' for Inactive)
REMARK    1  A    between atoms: C_1  and  P_2
REMARK    2  A    between atoms: C_1  and  C_9
REMARK    3  A    between atoms: P_2  and  O_4
REMARK    4  A    between atoms: P_2  and  O_6
REMARK    5  A    between atoms: C_9  and  C_11
REMARK    6  A    between atoms: C_11  and  O_12
REMARK                            x       y       z     vdW  Elec       q    Type
REMARK                         _______ _______ _______ _____ _____    ______ ____
ROOT
ATOM      1  C   UNL     1      39.034 -25.170 -13.146  0.00  0.00    +0.191 C 
ENDROOT
BRANCH   1   2
ATOM      2  P   UNL     1      39.511 -25.390 -14.873  0.00  0.00    +0.345 P 
ATOM      3  O   UNL     1      40.913 -25.858 -15.052  0.00  0.00    -0.258 OA
BRANCH   2   4
ATOM      4  O   UNL     1      39.151 -23.959 -15.519  0.00  0.00    -0.323 OA
ATOM      5  H   UNL     1      39.581 -23.879 -16.385  0.00  0.00    +0.220 HD
ENDBRANCH   2   4
BRANCH   2   6
ATOM      6  O   UNL     1      38.359 -26.368 -15.430  0.00  0.00    -0.323 OA
ATOM      7  H   UNL     1      38.555 -26.607 -16.349  0.00  0.00    +0.220 HD
ENDBRANCH   2   6
ENDBRANCH   1   2
BRANCH   1   9
ATOM      8  O   UNL     1      36.851 -24.354 -13.808  0.00  0.00    -0.284 OA
ATOM      9  C   UNL     1      37.740 -24.428 -12.974  0.00  0.00    +0.260 C 
BRANCH   9  11
ATOM     10  O   UNL     1      36.802 -24.142 -10.804  0.00  0.00    -0.242 OA
ATOM     11  C   UNL     1      37.533 -23.707 -11.672  0.00  0.00    +0.374 C 
BRANCH  11  12
ATOM     12  O   UNL     1      38.297 -22.609 -11.630  0.00  0.00    -0.475 OA
ATOM     13  H   UNL     1      38.166 -21.972 -10.955  0.00  0.00    +0.295 HD
ENDBRANCH  11  12
ENDBRANCH   9  11
ENDBRANCH   1   9
TORSDOF 6
ENDMDL
MODEL 5
REMARK VINA RESULT:      -5.7      2.113      3.433
REMARK  Name = 439811
REMARK  6 active torsions:
REMARK  status: ('A' for Active; 'I' for Inactive)
REMARK    1  A    between atoms: C_1  and  P_2
REMARK    2  A    between atoms: C_1  and  C_9
REMARK    3  A    between atoms: P_2  and  O_4
REMARK    4  A    between atoms: P_2  and  O_6
REMARK    5  A    between atoms: C_9  and  C_11
REMARK    6  A    between atoms: C_11  and  O_12
REMARK                            x       y       z     vdW  Elec       q    Type
REMARK                         _______ _______ _______ _____ _____    ______ ____
ROOT
ATOM      1  C   UNL     1      37.177 -24.595 -14.387  0.00  0.00    +0.191 C 
ENDROOT
BRANCH   1   2
ATOM      2  P   UNL     1      37.205 -26.384 -14.622  0.00  0.00    +0.345 P 
ATOM      3  O   UNL     1      36.349 -26.854 -15.746  0.00  0.00    -0.258 OA
BRANCH   2   4
ATOM      4  O   UNL     1      36.822 -26.934 -13.158  0.00  0.00    -0.323 OA
ATOM      5  H   UNL     1      36.087 -27.564 -13.232  0.00  0.00    +0.220 HD
ENDBRANCH   2   4
BRANCH   2   6
ATOM      6  O   UNL     1      38.780 -26.693 -14.753  0.00  0.00    -0.323 OA
ATOM      7  H   UNL     1      39.209 -25.982 -15.255  0.00  0.00    +0.220 HD
ENDBRANCH   2   6
ENDBRANCH   1   2
BRANCH   1   9
ATOM      8  O   UNL     1      38.935 -24.459 -12.725  0.00  0.00    -0.284 OA
ATOM      9  C   UNL     1      37.814 -24.152 -13.101  0.00  0.00    +0.260 C 
BRANCH   9  11
ATOM     10  O   UNL     1      37.477 -22.712 -11.235  0.00  0.00    -0.242 OA
ATOM     11  C   UNL     1      36.996 -23.271 -12.200  0.00  0.00    +0.374 C 
BRANCH  11  12
ATOM     12  O   UNL     1      35.743 -23.180 -12.663  0.00  0.00    -0.475 OA
ATOM     13  H   UNL     1      35.585 -23.150 -13.586  0.00  0.00    +0.295 HD
ENDBRANCH  11  12
ENDBRANCH   9  11
ENDBRANCH   1   9
TORSDOF 6
ENDMDL
MODEL 6
REMARK VINA RESULT:      -5.7      2.074      3.792
REMARK  Name = 439811
REMARK  6 active torsions:
REMARK  status: ('A' for Active; 'I' for Inactive)
REMARK    1  A    between atoms: C_1  and  P_2
REMARK    2  A    between atoms: C_1  and  C_9
REMARK    3  A    between atoms: P_2  and  O_4
REMARK    4  A    between atoms: P_2  and  O_6
REMARK    5  A    between atoms: C_9  and  C_11
REMARK    6  A    between atoms: C_11  and  O_12
REMARK                            x       y       z     vdW  Elec       q    Type
REMARK                         _______ _______ _______ _____ _____    ______ ____
ROOT
ATOM      1  C   UNL     1      37.179 -26.247 -12.994  0.00  0.00    +0.191 C 
ENDROOT
BRANCH   1   2
ATOM      2  P   UNL     1      37.631 -24.562 -12.532  0.00  0.00    +0.345 P 
ATOM      3  O   UNL     1      37.833 -24.376 -11.069  0.00  0.00    -0.258 OA
BRANCH   2   4
ATOM      4  O   UNL     1      36.458 -23.688 -13.205  0.00  0.00    -0.323 OA
ATOM      5  H   UNL     1      35.638 -24.207 -13.221  0.00  0.00    +0.220 HD
ENDBRANCH   2   4
BRANCH   2   6
ATOM      6  O   UNL     1      38.912 -24.277 -13.467  0.00  0.00    -0.323 OA
ATOM      7  H   UNL     1      39.183 -23.351 -13.369  0.00  0.00    +0.220 HD
ENDBRANCH   2   6
ENDBRANCH   1   2
BRANCH   1   9
ATOM      8  O   UNL     1      38.722 -27.002 -14.702  0.00  0.00    -0.284 OA
ATOM      9  C   UNL     1      37.607 -26.620 -14.384  0.00  0.00    +0.260 C 
BRANCH   9  11
ATOM     10  O   UNL     1      35.726 -25.630 -15.457  0.00  0.00    -0.242 OA
ATOM     11  C   UNL     1      36.579 -26.495 -15.473  0.00  0.00    +0.374 C 
BRANCH  11  12
ATOM     12  O   UNL     1      36.804 -27.412 -16.423  0.00  0.00    -0.475 OA
ATOM     13  H   UNL     1      36.212 -27.493 -17.145  0.00  0.00    +0.295 HD
ENDBRANCH  11  12
ENDBRANCH   9  11
ENDBRANCH   1   9
TORSDOF 6
ENDMDL
MODEL 7
REMARK VINA RESULT:      -5.6      2.127      3.427
REMARK  Name = 439811
REMARK  6 active torsions:
REMARK  status: ('A' for Active; 'I' for Inactive)
REMARK    1  A    between atoms: C_1  and  P_2
REMARK    2  A    between atoms: C_1  and  C_9
REMARK    3  A    between atoms: P_2  and  O_4
REMARK    4  A    between atoms: P_2  and  O_6
REMARK    5  A    between atoms: C_9  and  C_11
REMARK    6  A    between atoms: C_11  and  O_12
REMARK                            x       y       z     vdW  Elec       q    Type
REMARK                         _______ _______ _______ _____ _____    ______ ____
ROOT
ATOM      1  C   UNL     1      37.382 -24.582 -14.288  0.00  0.00    +0.191 C 
ENDROOT
BRANCH   1   2
ATOM      2  P   UNL     1      37.291 -26.384 -14.276  0.00  0.00    +0.345 P 
ATOM      3  O   UNL     1      38.551 -27.050 -14.709  0.00  0.00    -0.258 OA
BRANCH   2   4
ATOM      4  O   UNL     1      35.989 -26.674 -15.178  0.00  0.00    -0.323 OA
ATOM      5  H   UNL     1      35.753 -25.873 -15.672  0.00  0.00    +0.220 HD
ENDBRANCH   2   4
BRANCH   2   6
ATOM      6  O   UNL     1      36.803 -26.698 -12.774  0.00  0.00    -0.323 OA
ATOM      7  H   UNL     1      36.071 -26.105 -12.542  0.00  0.00    +0.220 HD
ENDBRANCH   2   6
ENDBRANCH   1   2
BRANCH   1   9
ATOM      8  O   UNL     1      35.565 -23.747 -12.919  0.00  0.00    -0.284 OA
ATOM      9  C   UNL     1      36.760 -23.945 -13.079  0.00  0.00    +0.260 C 
BRANCH   9  11
ATOM     10  O   UNL     1      38.163 -22.383 -11.956  0.00  0.00    -0.242 OA
ATOM     11  C   UNL     1      37.690 -23.501 -11.985  0.00  0.00    +0.374 C 
BRANCH  11  12
ATOM     12  O   UNL     1      37.838 -24.480 -11.084  0.00  0.00    -0.475 OA
ATOM     13  H   UNL     1      38.131 -25.327 -11.356  0.00  0.00    +0.295 HD
ENDBRANCH  11  12
ENDBRANCH   9  11
ENDBRANCH   1   9
TORSDOF 6
ENDMDL
MODEL 8
REMARK VINA RESULT:      -5.6      3.142      4.598
REMARK  Name = 439811
REMARK  6 active torsions:
REMARK  status: ('A' for Active; 'I' for Inactive)
REMARK    1  A    between atoms: C_1  and  P_2
REMARK    2  A    between atoms: C_1  and  C_9
REMARK    3  A    between atoms: P_2  and  O_4
REMARK    4  A    between atoms: P_2  and  O_6
REMARK    5  A    between atoms: C_9  and  C_11
REMARK    6  A    between atoms: C_11  and  O_12
REMARK                            x       y       z     vdW  Elec       q    Type
REMARK                         _______ _______ _______ _____ _____    ______ ____
ROOT
ATOM      1  C   UNL     1      36.619 -23.589 -13.333  0.00  0.00    +0.191 C 
ENDROOT
BRANCH   1   2
ATOM      2  P   UNL     1      37.879 -24.656 -14.062  0.00  0.00    +0.345 P 
ATOM      3  O   UNL     1      37.417 -26.051 -14.303  0.00  0.00    -0.258 OA
BRANCH   2   4
ATOM      4  O   UNL     1      39.115 -24.482 -13.044  0.00  0.00    -0.323 OA
ATOM      5  H   UNL     1      39.820 -25.103 -13.284  0.00  0.00    +0.220 HD
ENDBRANCH   2   4
BRANCH   2   6
ATOM      6  O   UNL     1      38.329 -23.823 -15.365  0.00  0.00    -0.323 OA
ATOM      7  H   UNL     1      37.543 -23.469 -15.810  0.00  0.00    +0.220 HD
ENDBRANCH   2   6
ENDBRANCH   1   2
BRANCH   1   9
ATOM      8  O   UNL     1      37.536 -22.692 -11.278  0.00  0.00    -0.284 OA
ATOM      9  C   UNL     1      36.752 -23.438 -11.845  0.00  0.00    +0.260 C 
BRANCH   9  11
ATOM     10  O   UNL     1      35.939 -24.290  -9.777  0.00  0.00    -0.242 OA
ATOM     11  C   UNL     1      35.857 -24.288 -10.988  0.00  0.00    +0.374 C 
BRANCH  11  12
ATOM     12  O   UNL     1      34.979 -24.946 -11.755  0.00  0.00    -0.475 OA
ATOM     13  H   UNL     1      34.583 -25.735 -11.443  0.00  0.00    +0.295 HD
ENDBRANCH  11  12
ENDBRANCH   9  11
ENDBRANCH   1   9
TORSDOF 6
ENDMDL
MODEL 9
REMARK VINA RESULT:      -5.5      2.477      3.757
REMARK  Name = 439811
REMARK  6 active torsions:
REMARK  status: ('A' for Active; 'I' for Inactive)
REMARK    1  A    between atoms: C_1  and  P_2
REMARK    2  A    between atoms: C_1  and  C_9
REMARK    3  A    between atoms: P_2  and  O_4
REMARK    4  A    between atoms: P_2  and  O_6
REMARK    5  A    between atoms: C_9  and  C_11
REMARK    6  A    between atoms: C_11  and  O_12
REMARK                            x       y       z     vdW  Elec       q    Type
REMARK                         _______ _______ _______ _____ _____    ______ ____
ROOT
ATOM      1  C   UNL     1      36.897 -25.845 -13.190  0.00  0.00    +0.191 C 
ENDROOT
BRANCH   1   2
ATOM      2  P   UNL     1      37.318 -26.163 -14.916  0.00  0.00    +0.345 P 
ATOM      3  O   UNL     1      36.325 -27.014 -15.629  0.00  0.00    -0.258 OA
BRANCH   2   4
ATOM      4  O   UNL     1      38.812 -26.754 -14.807  0.00  0.00    -0.323 OA
ATOM      5  H   UNL     1      39.233 -26.731 -15.681  0.00  0.00    +0.220 HD
ENDBRANCH   2   4
BRANCH   2   6
ATOM      6  O   UNL     1      37.530 -24.677 -15.502  0.00  0.00    -0.323 OA
ATOM      7  H   UNL     1      36.680 -24.209 -15.507  0.00  0.00    +0.220 HD
ENDBRANCH   2   6
ENDBRANCH   1   2
BRANCH   1   9
ATOM      8  O   UNL     1      38.769 -24.328 -12.939  0.00  0.00    -0.284 OA
ATOM      9  C   UNL     1      37.658 -24.698 -12.591  0.00  0.00    +0.260 C 
BRANCH   9  11
ATOM     10  O   UNL     1      36.087 -24.438 -10.821  0.00  0.00    -0.242 OA
ATOM     11  C   UNL     1      37.002 -23.958 -11.460  0.00  0.00    +0.374 C 
BRANCH  11  12
ATOM     12  O   UNL     1      37.613 -22.782 -11.266  0.00  0.00    -0.475 OA
ATOM     13  H   UNL     1      37.243 -22.154 -10.678  0.00  0.00    +0.295 HD
ENDBRANCH  11  12
ENDBRANCH   9  11
ENDBRANCH   1   9
TORSDOF 6
ENDMDL
