MODEL 1
REMARK VINA RESULT:      -5.8      0.000      0.000
REMARK  Name = 572
REMARK  7 active torsions:
REMARK  status: ('A' for Active; 'I' for Inactive)
REMARK    1  A    between atoms: C_1  and  C_2
REMARK    2  A    between atoms: C_1  and  C_9
REMARK    3  A    between atoms: C_2  and  P_3
REMARK    4  A    between atoms: P_3  and  O_5
REMARK    5  A    between atoms: P_3  and  O_7
REMARK    6  A    between atoms: C_9  and  N_11
REMARK    7  A    between atoms: N_11  and  O_13
REMARK                            x       y       z     vdW  Elec       q    Type
REMARK                         _______ _______ _______ _____ _____    ______ ____
ROOT
ATOM      1  C   UNL     1      36.664 -25.053 -14.574  0.00  0.00    +0.037 C 
ENDROOT
BRANCH   1   2
ATOM      2  C   UNL     1      36.036 -24.371 -13.363  0.00  0.00    +0.117 C 
BRANCH   2   3
ATOM      3  P   UNL     1      36.638 -25.003 -11.782  0.00  0.00    +0.337 P 
ATOM      4  O   UNL     1      37.821 -24.266 -11.255  0.00  0.00    -0.258 OA
BRANCH   3   5
ATOM      5  O   UNL     1      36.857 -26.567 -12.092  0.00  0.00    -0.324 OA
ATOM      6  H   UNL     1      36.567 -26.760 -12.998  0.00  0.00    +0.220 HD
ENDBRANCH   3   5
BRANCH   3   7
ATOM      7  O   UNL     1      35.314 -24.967 -10.867  0.00  0.00    -0.324 OA
ATOM      8  H   UNL     1      34.548 -25.238 -11.396  0.00  0.00    +0.220 HD
ENDBRANCH   3   7
ENDBRANCH   2   3
ENDBRANCH   1   2
BRANCH   1   9
ATOM      9  C   UNL     1      38.144 -24.732 -14.755  0.00  0.00    +0.125 C 
BRANCH   9  11
ATOM     10  O   UNL     1      41.027 -24.820 -14.608  0.00  0.00    -0.263 OA
ATOM     11  N   UNL     1      38.977 -25.899 -14.667  0.00  0.00    -0.165 N 
ATOM     12  C   UNL     1      40.341 -25.836 -14.602  0.00  0.00    +0.327 C 
BRANCH  11  13
ATOM     13  O   UNL     1      38.268 -27.110 -14.656  0.00  0.00    -0.291 OA
ATOM     14  H   UNL     1      38.519 -27.639 -15.429  0.00  0.00    +0.242 HD
ENDBRANCH  11  13
ENDBRANCH   9  11
ENDBRANCH   1   9
TORSDOF 7
ENDMDL
MODEL 2
REMARK VINA RESULT:      -5.8      2.427      4.867
REMARK  Name = 572
REMARK  7 active torsions:
REMARK  status: ('A' for Active; 'I' for Inactive)
REMARK    1  A    between atoms: C_1  and  C_2
REMARK    2  A    between atoms: C_1  and  C_9
REMARK    3  A    between atoms: C_2  and  P_3
REMARK    4  A    between atoms: P_3  and  O_5
REMARK    5  A    between atoms: P_3  and  O_7
REMARK    6  A    between atoms: C_9  and  N_11
REMARK    7  A    between atoms: N_11  and  O_13
REMARK                            x       y       z     vdW  Elec       q    Type
REMARK                         _______ _______ _______ _____ _____    ______ ____
ROOT
ATOM      1  C   UNL     1      37.403 -25.419 -13.582  0.00  0.00    +0.037 C 
ENDROOT
BRANCH   1   2
ATOM      2  C   UNL     1      38.432 -26.150 -14.437  0.00  0.00    +0.117 C 
BRANCH   2   3
ATOM      3  P   UNL     1      39.824 -25.115 -14.941  0.00  0.00    +0.337 P 
ATOM      4  O   UNL     1      40.745 -24.767 -13.823  0.00  0.00    -0.258 OA
BRANCH   3   5
ATOM      5  O   UNL     1      39.093 -23.880 -15.670  0.00  0.00    -0.324 OA
ATOM      6  H   UNL     1      38.683 -24.188 -16.494  0.00  0.00    +0.220 HD
ENDBRANCH   3   5
BRANCH   3   7
ATOM      7  O   UNL     1      40.464 -25.960 -16.152  0.00  0.00    -0.324 OA
ATOM      8  H   UNL     1      40.220 -25.551 -16.997  0.00  0.00    +0.220 HD
ENDBRANCH   3   7
ENDBRANCH   2   3
ENDBRANCH   1   2
BRANCH   1   9
ATOM      9  C   UNL     1      37.821 -25.265 -12.123  0.00  0.00    +0.125 C 
BRANCH   9  11
ATOM     10  O   UNL     1      35.321 -24.980 -10.705  0.00  0.00    -0.263 OA
ATOM     11  N   UNL     1      37.291 -24.073 -11.519  0.00  0.00    -0.165 N 
ATOM     12  C   UNL     1      36.091 -24.040 -10.867  0.00  0.00    +0.327 C 
BRANCH  11  13
ATOM     13  O   UNL     1      38.114 -22.945 -11.660  0.00  0.00    -0.291 OA
ATOM     14  H   UNL     1      37.563 -22.149 -11.720  0.00  0.00    +0.242 HD
ENDBRANCH  11  13
ENDBRANCH   9  11
ENDBRANCH   1   9
TORSDOF 7
ENDMDL
MODEL 3
REMARK VINA RESULT:      -5.8      1.757      1.958
REMARK  Name = 572
REMARK  7 active torsions:
REMARK  status: ('A' for Active; 'I' for Inactive)
REMARK    1  A    between atoms: C_1  and  C_2
REMARK    2  A    between atoms: C_1  and  C_9
REMARK    3  A    between atoms: C_2  and  P_3
REMARK    4  A    between atoms: P_3  and  O_5
REMARK    5  A    between atoms: P_3  and  O_7
REMARK    6  A    between atoms: C_9  and  N_11
REMARK    7  A    between atoms: N_11  and  O_13
REMARK                            x       y       z     vdW  Elec       q    Type
REMARK                         _______ _______ _______ _____ _____    ______ ____
ROOT
ATOM      1  C   UNL     1      38.029 -25.205 -12.754  0.00  0.00    +0.037 C 
ENDROOT
BRANCH   1   2
ATOM      2  C   UNL     1      36.625 -25.432 -12.203  0.00  0.00    +0.117 C 
BRANCH   2   3
ATOM      3  P   UNL     1      36.016 -24.070 -11.185  0.00  0.00    +0.337 P 
ATOM      4  O   UNL     1      37.065 -23.074 -10.830  0.00  0.00    -0.258 OA
BRANCH   3   5
ATOM      5  O   UNL     1      35.321 -24.839  -9.954  0.00  0.00    -0.324 OA
ATOM      6  H   UNL     1      35.461 -25.795 -10.050  0.00  0.00    +0.220 HD
ENDBRANCH   3   5
BRANCH   3   7
ATOM      7  O   UNL     1      34.776 -23.517 -12.050  0.00  0.00    -0.324 OA
ATOM      8  H   UNL     1      34.334 -22.804 -11.563  0.00  0.00    +0.220 HD
ENDBRANCH   3   7
ENDBRANCH   2   3
ENDBRANCH   1   2
BRANCH   1   9
ATOM      9  C   UNL     1      38.233 -25.770 -14.156  0.00  0.00    +0.125 C 
BRANCH   9  11
ATOM     10  O   UNL     1      41.008 -26.558 -14.301  0.00  0.00    -0.263 OA
ATOM     11  N   UNL     1      39.291 -25.110 -14.869  0.00  0.00    -0.165 N 
ATOM     12  C   UNL     1      40.579 -25.563 -14.876  0.00  0.00    +0.327 C 
BRANCH  11  13
ATOM     13  O   UNL     1      38.885 -23.956 -15.557  0.00  0.00    -0.291 OA
ATOM     14  H   UNL     1      37.916 -23.918 -15.580  0.00  0.00    +0.242 HD
ENDBRANCH  11  13
ENDBRANCH   9  11
ENDBRANCH   1   9
TORSDOF 7
ENDMDL
MODEL 4
REMARK VINA RESULT:      -5.8      2.460      4.387
REMARK  Name = 572
REMARK  7 active torsions:
REMARK  status: ('A' for Active; 'I' for Inactive)
REMARK    1  A    between atoms: C_1  and  C_2
REMARK    2  A    between atoms: C_1  and  C_9
REMARK    3  A    between atoms: C_2  and  P_3
REMARK    4  A    between atoms: P_3  and  O_5
REMARK    5  A    between atoms: P_3  and  O_7
REMARK    6  A    between atoms: C_9  and  N_11
REMARK    7  A    between atoms: N_11  and  O_13
REMARK                            x       y       z     vdW  Elec       q    Type
REMARK                         _______ _______ _______ _____ _____    ______ ____
ROOT
ATOM      1  C   UNL     1      37.462 -26.051 -12.987  0.00  0.00    +0.037 C 
ENDROOT
BRANCH   1   2
ATOM      2  C   UNL     1      38.001 -26.236 -14.402  0.00  0.00    +0.117 C 
BRANCH   2   3
ATOM      3  P   UNL     1      39.512 -25.303 -14.729  0.00  0.00    +0.337 P 
ATOM      4  O   UNL     1      40.604 -26.123 -15.326  0.00  0.00    -0.258 OA
BRANCH   3   5
ATOM      5  O   UNL     1      39.827 -24.636 -13.299  0.00  0.00    -0.324 OA
ATOM      6  H   UNL     1      40.267 -23.781 -13.431  0.00  0.00    +0.220 HD
ENDBRANCH   3   5
BRANCH   3   7
ATOM      7  O   UNL     1      38.976 -24.076 -15.623  0.00  0.00    -0.324 OA
ATOM      8  H   UNL     1      38.747 -24.397 -16.509  0.00  0.00    +0.220 HD
ENDBRANCH   3   7
ENDBRANCH   2   3
ENDBRANCH   1   2
BRANCH   1   9
ATOM      9  C   UNL     1      36.348 -25.013 -12.890  0.00  0.00    +0.125 C 
BRANCH   9  11
ATOM     10  O   UNL     1      37.861 -22.711 -12.019  0.00  0.00    -0.263 OA
ATOM     11  N   UNL     1      36.300 -24.373 -11.604  0.00  0.00    -0.165 N 
ATOM     12  C   UNL     1      37.060 -23.283 -11.287  0.00  0.00    +0.327 C 
BRANCH  11  13
ATOM     13  O   UNL     1      35.405 -24.968 -10.701  0.00  0.00    -0.291 OA
ATOM     14  H   UNL     1      35.186 -25.862 -11.006  0.00  0.00    +0.242 HD
ENDBRANCH  11  13
ENDBRANCH   9  11
ENDBRANCH   1   9
TORSDOF 7
ENDMDL
MODEL 5
REMARK VINA RESULT:      -5.7      2.340      3.772
REMARK  Name = 572
REMARK  7 active torsions:
REMARK  status: ('A' for Active; 'I' for Inactive)
REMARK    1  A    between atoms: C_1  and  C_2
REMARK    2  A    between atoms: C_1  and  C_9
REMARK    3  A    between atoms: C_2  and  P_3
REMARK    4  A    between atoms: P_3  and  O_5
REMARK    5  A    between atoms: P_3  and  O_7
REMARK    6  A    between atoms: C_9  and  N_11
REMARK    7  A    between atoms: N_11  and  O_13
REMARK                            x       y       z     vdW  Elec       q    Type
REMARK                         _______ _______ _______ _____ _____    ______ ____
ROOT
ATOM      1  C   UNL     1      35.549 -24.631 -14.163  0.00  0.00    +0.037 C 
ENDROOT
BRANCH   1   2
ATOM      2  C   UNL     1      36.881 -24.836 -14.876  0.00  0.00    +0.117 C 
BRANCH   2   3
ATOM      3  P   UNL     1      37.487 -26.536 -14.805  0.00  0.00    +0.337 P 
ATOM      4  O   UNL     1      38.970 -26.638 -14.707  0.00  0.00    -0.258 OA
BRANCH   3   5
ATOM      5  O   UNL     1      36.815 -27.200 -16.107  0.00  0.00    -0.324 OA
ATOM      6  H   UNL     1      35.961 -26.774 -16.283  0.00  0.00    +0.220 HD
ENDBRANCH   3   5
BRANCH   3   7
ATOM      7  O   UNL     1      36.650 -27.152 -13.575  0.00  0.00    -0.324 OA
ATOM      8  H   UNL     1      36.865 -28.093 -13.477  0.00  0.00    +0.220 HD
ENDBRANCH   3   7
ENDBRANCH   2   3
ENDBRANCH   1   2
BRANCH   1   9
ATOM      9  C   UNL     1      35.629 -23.663 -12.988  0.00  0.00    +0.125 C 
BRANCH   9  11
ATOM     10  O   UNL     1      38.065 -22.478 -11.986  0.00  0.00    -0.263 OA
ATOM     11  N   UNL     1      36.464 -24.152 -11.925  0.00  0.00    -0.165 N 
ATOM     12  C   UNL     1      37.604 -23.516 -11.523  0.00  0.00    +0.327 C 
BRANCH  11  13
ATOM     13  O   UNL     1      36.006 -25.342 -11.338  0.00  0.00    -0.291 OA
ATOM     14  H   UNL     1      35.503 -25.133 -10.536  0.00  0.00    +0.242 HD
ENDBRANCH  11  13
ENDBRANCH   9  11
ENDBRANCH   1   9
TORSDOF 7
ENDMDL
MODEL 6
REMARK VINA RESULT:      -5.6      2.635      4.397
REMARK  Name = 572
REMARK  7 active torsions:
REMARK  status: ('A' for Active; 'I' for Inactive)
REMARK    1  A    between atoms: C_1  and  C_2
REMARK    2  A    between atoms: C_1  and  C_9
REMARK    3  A    between atoms: C_2  and  P_3
REMARK    4  A    between atoms: P_3  and  O_5
REMARK    5  A    between atoms: P_3  and  O_7
REMARK    6  A    between atoms: C_9  and  N_11
REMARK    7  A    between atoms: N_11  and  O_13
REMARK                            x       y       z     vdW  Elec       q    Type
REMARK                         _______ _______ _______ _____ _____    ______ ____
ROOT
ATOM      1  C   UNL     1      37.509 -25.472 -12.820  0.00  0.00    +0.037 C 
ENDROOT
BRANCH   1   2
ATOM      2  C   UNL     1      38.973 -25.138 -13.086  0.00  0.00    +0.117 C 
BRANCH   2   3
ATOM      3  P   UNL     1      39.476 -25.392 -14.802  0.00  0.00    +0.337 P 
ATOM      4  O   UNL     1      40.896 -25.816 -14.953  0.00  0.00    -0.258 OA
BRANCH   3   5
ATOM      5  O   UNL     1      39.074 -23.995 -15.493  0.00  0.00    -0.324 OA
ATOM      6  H   UNL     1      39.629 -23.285 -15.133  0.00  0.00    +0.220 HD
ENDBRANCH   3   5
BRANCH   3   7
ATOM      7  O   UNL     1      38.365 -26.427 -15.339  0.00  0.00    -0.324 OA
ATOM      8  H   UNL     1      38.803 -27.218 -15.691  0.00  0.00    +0.220 HD
ENDBRANCH   3   7
ENDBRANCH   2   3
ENDBRANCH   1   2
BRANCH   1   9
ATOM      9  C   UNL     1      36.585 -24.261 -12.896  0.00  0.00    +0.125 C 
BRANCH   9  11
ATOM     10  O   UNL     1      36.071 -24.483 -15.730  0.00  0.00    -0.263 OA
ATOM     11  N   UNL     1      35.333 -24.562 -13.535  0.00  0.00    -0.165 N 
ATOM     12  C   UNL     1      35.191 -24.645 -14.892  0.00  0.00    +0.327 C 
BRANCH  11  13
ATOM     13  O   UNL     1      34.268 -24.761 -12.644  0.00  0.00    -0.291 OA
ATOM     14  H   UNL     1      34.577 -25.275 -11.881  0.00  0.00    +0.242 HD
ENDBRANCH  11  13
ENDBRANCH   9  11
ENDBRANCH   1   9
TORSDOF 7
ENDMDL
MODEL 7
REMARK VINA RESULT:      -5.4      1.905      2.453
REMARK  Name = 572
REMARK  7 active torsions:
REMARK  status: ('A' for Active; 'I' for Inactive)
REMARK    1  A    between atoms: C_1  and  C_2
REMARK    2  A    between atoms: C_1  and  C_9
REMARK    3  A    between atoms: C_2  and  P_3
REMARK    4  A    between atoms: P_3  and  O_5
REMARK    5  A    between atoms: P_3  and  O_7
REMARK    6  A    between atoms: C_9  and  N_11
REMARK    7  A    between atoms: N_11  and  O_13
REMARK                            x       y       z     vdW  Elec       q    Type
REMARK                         _______ _______ _______ _____ _____    ______ ____
ROOT
ATOM      1  C   UNL     1      36.694 -23.238 -13.754  0.00  0.00    +0.037 C 
ENDROOT
BRANCH   1   2
ATOM      2  C   UNL     1      36.783 -23.360 -12.236  0.00  0.00    +0.117 C 
BRANCH   2   3
ATOM      3  P   UNL     1      35.905 -24.790 -11.570  0.00  0.00    +0.337 P 
ATOM      4  O   UNL     1      36.685 -26.057 -11.641  0.00  0.00    -0.258 OA
BRANCH   3   5
ATOM      5  O   UNL     1      34.521 -24.763 -12.392  0.00  0.00    -0.324 OA
ATOM      6  H   UNL     1      34.114 -23.885 -12.311  0.00  0.00    +0.220 HD
ENDBRANCH   3   5
BRANCH   3   7
ATOM      7  O   UNL     1      35.494 -24.291 -10.096  0.00  0.00    -0.324 OA
ATOM      8  H   UNL     1      36.104 -24.669  -9.444  0.00  0.00    +0.220 HD
ENDBRANCH   3   7
ENDBRANCH   2   3
ENDBRANCH   1   2
BRANCH   1   9
ATOM      9  C   UNL     1      37.514 -24.287 -14.498  0.00  0.00    +0.125 C 
BRANCH   9  11
ATOM     10  O   UNL     1      38.195 -27.085 -14.720  0.00  0.00    -0.263 OA
ATOM     11  N   UNL     1      36.701 -25.342 -15.038  0.00  0.00    -0.165 N 
ATOM     12  C   UNL     1      37.116 -26.643 -15.099  0.00  0.00    +0.327 C 
BRANCH  11  13
ATOM     13  O   UNL     1      35.445 -24.920 -15.498  0.00  0.00    -0.291 OA
ATOM     14  H   UNL     1      34.822 -25.663 -15.462  0.00  0.00    +0.242 HD
ENDBRANCH  11  13
ENDBRANCH   9  11
ENDBRANCH   1   9
TORSDOF 7
ENDMDL
MODEL 8
REMARK VINA RESULT:      -5.4      1.657      2.607
REMARK  Name = 572
REMARK  7 active torsions:
REMARK  status: ('A' for Active; 'I' for Inactive)
REMARK    1  A    between atoms: C_1  and  C_2
REMARK    2  A    between atoms: C_1  and  C_9
REMARK    3  A    between atoms: C_2  and  P_3
REMARK    4  A    between atoms: P_3  and  O_5
REMARK    5  A    between atoms: P_3  and  O_7
REMARK    6  A    between atoms: C_9  and  N_11
REMARK    7  A    between atoms: N_11  and  O_13
REMARK                            x       y       z     vdW  Elec       q    Type
REMARK                         _______ _______ _______ _____ _____    ______ ____
ROOT
ATOM      1  C   UNL     1      36.810 -23.668 -14.055  0.00  0.00    +0.037 C 
ENDROOT
BRANCH   1   2
ATOM      2  C   UNL     1      37.102 -23.497 -12.569  0.00  0.00    +0.117 C 
BRANCH   2   3
ATOM      3  P   UNL     1      35.974 -24.416 -11.498  0.00  0.00    +0.337 P 
ATOM      4  O   UNL     1      34.540 -24.261 -11.867  0.00  0.00    -0.258 OA
BRANCH   3   5
ATOM      5  O   UNL     1      36.390 -23.900 -10.031  0.00  0.00    -0.324 OA
ATOM      6  H   UNL     1      36.647 -22.965 -10.078  0.00  0.00    +0.220 HD
ENDBRANCH   3   5
BRANCH   3   7
ATOM      7  O   UNL     1      36.568 -25.911 -11.568  0.00  0.00    -0.324 OA
ATOM      8  H   UNL     1      36.301 -26.403 -10.777  0.00  0.00    +0.220 HD
ENDBRANCH   3   7
ENDBRANCH   2   3
ENDBRANCH   1   2
BRANCH   1   9
ATOM      9  C   UNL     1      37.899 -24.426 -14.807  0.00  0.00    +0.125 C 
BRANCH   9  11
ATOM     10  O   UNL     1      36.170 -26.501 -15.832  0.00  0.00    -0.263 OA
ATOM     11  N   UNL     1      37.925 -25.825 -14.479  0.00  0.00    -0.165 N 
ATOM     12  C   UNL     1      37.059 -26.733 -15.021  0.00  0.00    +0.327 C 
BRANCH  11  13
ATOM     13  O   UNL     1      38.917 -26.178 -13.551  0.00  0.00    -0.291 OA
ATOM     14  H   UNL     1      38.532 -26.748 -12.868  0.00  0.00    +0.242 HD
ENDBRANCH  11  13
ENDBRANCH   9  11
ENDBRANCH   1   9
TORSDOF 7
ENDMDL
MODEL 9
REMARK VINA RESULT:      -5.2      1.386      2.034
REMARK  Name = 572
REMARK  7 active torsions:
REMARK  status: ('A' for Active; 'I' for Inactive)
REMARK    1  A    between atoms: C_1  and  C_2
REMARK    2  A    between atoms: C_1  and  C_9
REMARK    3  A    between atoms: C_2  and  P_3
REMARK    4  A    between atoms: P_3  and  O_5
REMARK    5  A    between atoms: P_3  and  O_7
REMARK    6  A    between atoms: C_9  and  N_11
REMARK    7  A    between atoms: N_11  and  O_13
REMARK                            x       y       z     vdW  Elec       q    Type
REMARK                         _______ _______ _______ _____ _____    ______ ____
ROOT
ATOM      1  C   UNL     1      36.852 -25.452 -14.571  0.00  0.00    +0.037 C 
ENDROOT
BRANCH   1   2
ATOM      2  C   UNL     1      35.682 -24.591 -14.109  0.00  0.00    +0.117 C 
BRANCH   2   3
ATOM      3  P   UNL     1      35.702 -24.230 -12.339  0.00  0.00    +0.337 P 
ATOM      4  O   UNL     1      36.114 -25.388 -11.497  0.00  0.00    -0.258 OA
BRANCH   3   5
ATOM      5  O   UNL     1      34.219 -23.659 -12.083  0.00  0.00    -0.324 OA
ATOM      6  H   UNL     1      33.757 -23.566 -12.932  0.00  0.00    +0.220 HD
ENDBRANCH   3   5
BRANCH   3   7
ATOM      7  O   UNL     1      36.642 -22.925 -12.261  0.00  0.00    -0.324 OA
ATOM      8  H   UNL     1      37.068 -22.885 -11.391  0.00  0.00    +0.220 HD
ENDBRANCH   3   7
ENDBRANCH   2   3
ENDBRANCH   1   2
BRANCH   1   9
ATOM      9  C   UNL     1      38.109 -24.651 -14.893  0.00  0.00    +0.125 C 
BRANCH   9  11
ATOM     10  O   UNL     1      40.511 -26.092 -15.599  0.00  0.00    -0.263 OA
ATOM     11  N   UNL     1      39.211 -24.983 -14.033  0.00  0.00    -0.165 N 
ATOM     12  C   UNL     1      40.309 -25.672 -14.464  0.00  0.00    +0.327 C 
BRANCH  11  13
ATOM     13  O   UNL     1      39.060 -24.538 -12.710  0.00  0.00    -0.291 OA
ATOM     14  H   UNL     1      38.118 -24.528 -12.479  0.00  0.00    +0.242 HD
ENDBRANCH  11  13
ENDBRANCH   9  11
ENDBRANCH   1   9
TORSDOF 7
ENDMDL
