MODEL 1
REMARK VINA RESULT:     -10.2      0.000      0.000
REMARK  Name = 3157
REMARK  3 active torsions:
REMARK  status: ('A' for Active; 'I' for Inactive)
REMARK    1  A    between atoms: C_11  and  C_24
REMARK    2  A    between atoms: C_18  and  O_32
REMARK    3  A    between atoms: C_19  and  O_34
REMARK                            x       y       z     vdW  Elec       q    Type
REMARK                         _______ _______ _______ _____ _____    ______ ____
ROOT
ATOM      1  O   UNL     1      34.377 -19.086 -24.125  0.00  0.00    -0.271 OA
ATOM      2  N   UNL     1      34.000 -16.957 -23.273  0.00  0.00    -0.273 N 
ATOM      3  N   UNL     1      33.856 -14.084 -23.589  0.00  0.00    -0.231 N 
ATOM      4  N   UNL     1      33.059 -11.983 -22.850  0.00  0.00    -0.332 NA
ATOM      5  N   UNL     1      34.553 -12.139 -24.735  0.00  0.00    -0.313 NA
ATOM      6  N   UNL     1      35.249 -10.204 -25.879  0.00  0.00    -0.332 N 
ATOM      7  C   UNL     1      33.768 -16.069 -22.132  0.00  0.00    +0.116 C 
ATOM      8  C   UNL     1      34.048 -16.324 -24.588  0.00  0.00    +0.116 C 
ATOM      9  C   UNL     1      33.097 -14.754 -22.530  0.00  0.00    +0.125 C 
ATOM     10  C   UNL     1      34.623 -14.912 -24.522  0.00  0.00    +0.125 C 
ATOM     11  C   UNL     1      34.183 -18.336 -23.165  0.00  0.00    +0.270 C 
ATOM     12  C   UNL     1      33.823 -12.698 -23.730  0.00  0.00    +0.204 C 
ATOM     13  C   UNL     1      33.022 -10.645 -22.980  0.00  0.00    +0.134 C 
ATOM     14  C   UNL     1      33.744  -9.986 -23.989  0.00  0.00    +0.074 C 
ATOM     15  C   UNL     1      34.494 -10.798 -24.836  0.00  0.00    +0.193 C 
ATOM     16  C   UNL     1      32.260  -9.867 -22.112  0.00  0.00    +0.127 C 
ATOM     17  C   UNL     1      33.698  -8.587 -24.116  0.00  0.00    +0.046 C 
ATOM     18  C   UNL     1      32.210  -8.474 -22.232  0.00  0.00    +0.157 C 
ATOM     19  C   UNL     1      32.929  -7.834 -23.234  0.00  0.00    +0.169 C 
ATOM     20  H   UNL     1      35.782 -10.769 -26.484  0.00  0.00    +0.145 HD
ATOM     21  H   UNL     1      35.240  -9.227 -25.997  0.00  0.00    +0.145 HD
ENDROOT
BRANCH  11  24
ATOM     22  O   UNL     1      35.374 -19.572 -21.615  0.00  0.00    -0.463 OA
ATOM     23  O   UNL     1      32.938 -20.408 -20.316  0.00  0.00    -0.468 OA
ATOM     24  C   UNL     1      34.124 -18.903 -21.786  0.00  0.00    +0.284 C 
ATOM     25  C   UNL     1      32.976 -19.884 -21.647  0.00  0.00    +0.258 C 
ATOM     26  C   UNL     1      35.360 -20.397 -20.520  0.00  0.00    +0.173 C 
ATOM     27  C   UNL     1      34.180 -20.793 -19.885  0.00  0.00    +0.172 C 
ATOM     28  C   UNL     1      36.593 -20.852 -20.052  0.00  0.00    +0.040 C 
ATOM     29  C   UNL     1      34.235 -21.608 -18.754  0.00  0.00    +0.040 C 
ATOM     30  C   UNL     1      36.646 -21.679 -18.930  0.00  0.00    +0.003 C 
ATOM     31  C   UNL     1      35.469 -22.051 -18.278  0.00  0.00    +0.003 C 
ENDBRANCH  11  24
BRANCH  18  32
ATOM     32  O   UNL     1      31.449  -7.757 -21.357  0.00  0.00    -0.472 OA
ATOM     33  C   UNL     1      32.031  -7.384 -20.125  0.00  0.00    +0.252 C 
ENDBRANCH  18  32
BRANCH  19  34
ATOM     34  O   UNL     1      32.887  -6.479 -23.363  0.00  0.00    -0.469 OA
ATOM     35  C   UNL     1      32.059  -5.932 -24.368  0.00  0.00    +0.253 C 
ENDBRANCH  19  34
TORSDOF 3
ENDMDL
MODEL 2
REMARK VINA RESULT:      -9.5      3.437      6.077
REMARK  Name = 3157
REMARK  3 active torsions:
REMARK  status: ('A' for Active; 'I' for Inactive)
REMARK    1  A    between atoms: C_11  and  C_24
REMARK    2  A    between atoms: C_18  and  O_32
REMARK    3  A    between atoms: C_19  and  O_34
REMARK                            x       y       z     vdW  Elec       q    Type
REMARK                         _______ _______ _______ _____ _____    ______ ____
ROOT
ATOM      1  O   UNL     1      32.477 -13.623 -20.246  0.00  0.00    -0.271 OA
ATOM      2  N   UNL     1      32.482 -11.920 -21.828  0.00  0.00    -0.273 N 
ATOM      3  N   UNL     1      32.123  -9.147 -22.576  0.00  0.00    -0.231 N 
ATOM      4  N   UNL     1      32.546  -7.360 -24.066  0.00  0.00    -0.332 NA
ATOM      5  N   UNL     1      31.092  -7.061 -22.167  0.00  0.00    -0.313 NA
ATOM      6  N   UNL     1      30.065  -4.985 -21.756  0.00  0.00    -0.332 N 
ATOM      7  C   UNL     1      32.562 -11.483 -23.224  0.00  0.00    +0.116 C 
ATOM      8  C   UNL     1      32.319 -10.869 -20.828  0.00  0.00    +0.116 C 
ATOM      9  C   UNL     1      32.992 -10.023 -23.365  0.00  0.00    +0.125 C 
ATOM     10  C   UNL     1      31.507  -9.692 -21.363  0.00  0.00    +0.125 C 
ATOM     11  C   UNL     1      32.543 -13.254 -21.422  0.00  0.00    +0.270 C 
ATOM     12  C   UNL     1      31.914  -7.820 -22.944  0.00  0.00    +0.204 C 
ATOM     13  C   UNL     1      32.349  -6.080 -24.427  0.00  0.00    +0.134 C 
ATOM     14  C   UNL     1      31.519  -5.227 -23.683  0.00  0.00    +0.074 C 
ATOM     15  C   UNL     1      30.917  -5.785 -22.558  0.00  0.00    +0.193 C 
ATOM     16  C   UNL     1      32.968  -5.558 -25.561  0.00  0.00    +0.127 C 
ATOM     17  C   UNL     1      31.320  -3.890 -24.070  0.00  0.00    +0.046 C 
ATOM     18  C   UNL     1      32.775  -4.229 -25.953  0.00  0.00    +0.157 C 
ATOM     19  C   UNL     1      31.951  -3.395 -25.208  0.00  0.00    +0.169 C 
ATOM     20  H   UNL     1      29.635  -5.369 -20.958  0.00  0.00    +0.145 HD
ATOM     21  H   UNL     1      29.903  -4.044 -21.997  0.00  0.00    +0.145 HD
ENDROOT
BRANCH  11  24
ATOM     22  O   UNL     1      33.465 -15.318 -21.908  0.00  0.00    -0.463 OA
ATOM     23  O   UNL     1      33.589 -14.671 -24.716  0.00  0.00    -0.468 OA
ATOM     24  C   UNL     1      32.707 -14.266 -22.505  0.00  0.00    +0.284 C 
ATOM     25  C   UNL     1      33.452 -13.683 -23.690  0.00  0.00    +0.258 C 
ATOM     26  C   UNL     1      33.957 -16.185 -22.849  0.00  0.00    +0.173 C 
ATOM     27  C   UNL     1      34.006 -15.875 -24.211  0.00  0.00    +0.172 C 
ATOM     28  C   UNL     1      34.429 -17.416 -22.395  0.00  0.00    +0.040 C 
ATOM     29  C   UNL     1      34.488 -16.814 -25.124  0.00  0.00    +0.040 C 
ATOM     30  C   UNL     1      34.924 -18.348 -23.307  0.00  0.00    +0.003 C 
ATOM     31  C   UNL     1      34.948 -18.050 -24.670  0.00  0.00    +0.003 C 
ENDBRANCH  11  24
BRANCH  18  32
ATOM     32  O   UNL     1      33.404  -3.766 -27.070  0.00  0.00    -0.472 OA
ATOM     33  C   UNL     1      33.056  -4.342 -28.312  0.00  0.00    +0.252 C 
ENDBRANCH  18  32
BRANCH  19  34
ATOM     34  O   UNL     1      31.755  -2.099 -25.577  0.00  0.00    -0.469 OA
ATOM     35  C   UNL     1      30.587  -1.786 -26.308  0.00  0.00    +0.253 C 
ENDBRANCH  19  34
TORSDOF 3
ENDMDL
MODEL 3
REMARK VINA RESULT:      -8.8      3.785      6.853
REMARK  Name = 3157
REMARK  3 active torsions:
REMARK  status: ('A' for Active; 'I' for Inactive)
REMARK    1  A    between atoms: C_11  and  C_24
REMARK    2  A    between atoms: C_18  and  O_32
REMARK    3  A    between atoms: C_19  and  O_34
REMARK                            x       y       z     vdW  Elec       q    Type
REMARK                         _______ _______ _______ _____ _____    ______ ____
ROOT
ATOM      1  O   UNL     1      31.403 -11.866 -20.257  0.00  0.00    -0.271 OA
ATOM      2  N   UNL     1      32.122 -10.586 -22.059  0.00  0.00    -0.273 N 
ATOM      3  N   UNL     1      32.299  -8.068 -23.475  0.00  0.00    -0.231 N 
ATOM      4  N   UNL     1      33.382  -6.685 -25.059  0.00  0.00    -0.332 NA
ATOM      5  N   UNL     1      31.378  -5.943 -23.943  0.00  0.00    -0.313 NA
ATOM      6  N   UNL     1      30.459  -3.827 -24.406  0.00  0.00    -0.332 N 
ATOM      7  C   UNL     1      32.732 -10.492 -23.387  0.00  0.00    +0.116 C 
ATOM      8  C   UNL     1      31.705  -9.327 -21.446  0.00  0.00    +0.116 C 
ATOM      9  C   UNL     1      33.311  -9.107 -23.676  0.00  0.00    +0.125 C 
ATOM     10  C   UNL     1      31.245  -8.310 -22.486  0.00  0.00    +0.125 C 
ATOM     11  C   UNL     1      31.916 -11.785 -21.376  0.00  0.00    +0.270 C 
ATOM     12  C   UNL     1      32.352  -6.866 -24.177  0.00  0.00    +0.204 C 
ATOM     13  C   UNL     1      33.440  -5.526 -25.740  0.00  0.00    +0.134 C 
ATOM     14  C   UNL     1      32.477  -4.521 -25.559  0.00  0.00    +0.074 C 
ATOM     15  C   UNL     1      31.467  -4.796 -24.641  0.00  0.00    +0.193 C 
ATOM     16  C   UNL     1      34.466  -5.288 -26.651  0.00  0.00    +0.127 C 
ATOM     17  C   UNL     1      32.548  -3.313 -26.276  0.00  0.00    +0.046 C 
ATOM     18  C   UNL     1      34.543  -4.089 -27.368  0.00  0.00    +0.157 C 
ATOM     19  C   UNL     1      33.584  -3.102 -27.181  0.00  0.00    +0.169 C 
ATOM     20  H   UNL     1      29.741  -4.012 -23.758  0.00  0.00    +0.145 HD
ATOM     21  H   UNL     1      30.477  -2.971 -24.890  0.00  0.00    +0.145 HD
ENDROOT
BRANCH  11  24
ATOM     22  O   UNL     1      33.042 -13.782 -21.069  0.00  0.00    -0.463 OA
ATOM     23  O   UNL     1      33.719 -13.904 -23.870  0.00  0.00    -0.468 OA
ATOM     24  C   UNL     1      32.366 -13.026 -22.073  0.00  0.00    +0.284 C 
ATOM     25  C   UNL     1      33.308 -12.700 -23.215  0.00  0.00    +0.258 C 
ATOM     26  C   UNL     1      33.773 -14.806 -21.612  0.00  0.00    +0.173 C 
ATOM     27  C   UNL     1      34.091 -14.870 -22.971  0.00  0.00    +0.172 C 
ATOM     28  C   UNL     1      34.212 -15.805 -20.744  0.00  0.00    +0.040 C 
ATOM     29  C   UNL     1      34.811 -15.957 -23.470  0.00  0.00    +0.040 C 
ATOM     30  C   UNL     1      34.944 -16.884 -21.240  0.00  0.00    +0.003 C 
ATOM     31  C   UNL     1      35.238 -16.963 -22.603  0.00  0.00    +0.003 C 
ENDBRANCH  11  24
BRANCH  18  32
ATOM     32  O   UNL     1      35.568  -3.904 -28.248  0.00  0.00    -0.472 OA
ATOM     33  C   UNL     1      36.788  -4.570 -27.991  0.00  0.00    +0.252 C 
ENDBRANCH  18  32
BRANCH  19  34
ATOM     34  O   UNL     1      33.648  -1.930 -27.872  0.00  0.00    -0.469 OA
ATOM     35  C   UNL     1      32.827  -1.786 -29.012  0.00  0.00    +0.253 C 
ENDBRANCH  19  34
TORSDOF 3
ENDMDL
MODEL 4
REMARK VINA RESULT:      -8.5      4.230     12.598
REMARK  Name = 3157
REMARK  3 active torsions:
REMARK  status: ('A' for Active; 'I' for Inactive)
REMARK    1  A    between atoms: C_11  and  C_24
REMARK    2  A    between atoms: C_18  and  O_32
REMARK    3  A    between atoms: C_19  and  O_34
REMARK                            x       y       z     vdW  Elec       q    Type
REMARK                         _______ _______ _______ _____ _____    ______ ____
ROOT
ATOM      1  O   UNL     1      30.445  -2.828 -23.942  0.00  0.00    -0.271 OA
ATOM      2  N   UNL     1      31.139  -5.046 -23.965  0.00  0.00    -0.273 N 
ATOM      3  N   UNL     1      31.499  -7.608 -22.668  0.00  0.00    -0.231 N 
ATOM      4  N   UNL     1      31.794  -9.951 -22.815  0.00  0.00    -0.332 NA
ATOM      5  N   UNL     1      31.812  -8.838 -20.676  0.00  0.00    -0.313 NA
ATOM      6  N   UNL     1      32.123 -10.061 -18.690  0.00  0.00    -0.332 N 
ATOM      7  C   UNL     1      31.832  -6.153 -24.628  0.00  0.00    +0.116 C 
ATOM      8  C   UNL     1      30.549  -5.338 -22.662  0.00  0.00    +0.116 C 
ATOM      9  C   UNL     1      31.378  -7.523 -24.125  0.00  0.00    +0.125 C 
ATOM     10  C   UNL     1      31.357  -6.376 -21.888  0.00  0.00    +0.125 C 
ATOM     11  C   UNL     1      31.029  -3.761 -24.499  0.00  0.00    +0.270 C 
ATOM     12  C   UNL     1      31.707  -8.831 -22.034  0.00  0.00    +0.204 C 
ATOM     13  C   UNL     1      31.994 -11.134 -22.209  0.00  0.00    +0.134 C 
ATOM     14  C   UNL     1      32.114 -11.233 -20.814  0.00  0.00    +0.074 C 
ATOM     15  C   UNL     1      32.013 -10.040 -20.103  0.00  0.00    +0.193 C 
ATOM     16  C   UNL     1      32.091 -12.307 -22.955  0.00  0.00    +0.127 C 
ATOM     17  C   UNL     1      32.323 -12.476 -20.192  0.00  0.00    +0.046 C 
ATOM     18  C   UNL     1      32.299 -13.547 -22.343  0.00  0.00    +0.157 C 
ATOM     19  C   UNL     1      32.416 -13.632 -20.961  0.00  0.00    +0.169 C 
ATOM     20  H   UNL     1      32.052  -9.223 -18.178  0.00  0.00    +0.145 HD
ATOM     21  H   UNL     1      32.270 -10.914 -18.221  0.00  0.00    +0.145 HD
ENDROOT
BRANCH  11  24
ATOM     22  O   UNL     1      32.889  -4.274 -25.774  0.00  0.00    -0.463 OA
ATOM     23  O   UNL     1      32.536  -1.891 -27.360  0.00  0.00    -0.468 OA
ATOM     24  C   UNL     1      31.663  -3.544 -25.832  0.00  0.00    +0.284 C 
ATOM     25  C   UNL     1      31.934  -2.072 -26.075  0.00  0.00    +0.258 C 
ATOM     26  C   UNL     1      33.728  -3.935 -26.803  0.00  0.00    +0.173 C 
ATOM     27  C   UNL     1      33.550  -2.786 -27.579  0.00  0.00    +0.172 C 
ATOM     28  C   UNL     1      34.802  -4.789 -27.055  0.00  0.00    +0.040 C 
ATOM     29  C   UNL     1      34.421  -2.514 -28.634  0.00  0.00    +0.040 C 
ATOM     30  C   UNL     1      35.681  -4.508 -28.102  0.00  0.00    +0.003 C 
ATOM     31  C   UNL     1      35.487  -3.375 -28.894  0.00  0.00    +0.003 C 
ENDBRANCH  11  24
BRANCH  18  32
ATOM     32  O   UNL     1      32.386 -14.666 -23.117  0.00  0.00    -0.472 OA
ATOM     33  C   UNL     1      33.428 -14.733 -24.069  0.00  0.00    +0.252 C 
ENDBRANCH  18  32
BRANCH  19  34
ATOM     34  O   UNL     1      32.618 -14.834 -20.353  0.00  0.00    -0.469 OA
ATOM     35  C   UNL     1      33.930 -15.357 -20.336  0.00  0.00    +0.253 C 
ENDBRANCH  19  34
TORSDOF 3
ENDMDL
MODEL 5
REMARK VINA RESULT:      -8.4      5.579     13.562
REMARK  Name = 3157
REMARK  3 active torsions:
REMARK  status: ('A' for Active; 'I' for Inactive)
REMARK    1  A    between atoms: C_11  and  C_24
REMARK    2  A    between atoms: C_18  and  O_32
REMARK    3  A    between atoms: C_19  and  O_34
REMARK                            x       y       z     vdW  Elec       q    Type
REMARK                         _______ _______ _______ _____ _____    ______ ____
ROOT
ATOM      1  O   UNL     1      32.122 -20.352 -21.576  0.00  0.00    -0.271 OA
ATOM      2  N   UNL     1      33.755 -20.880 -20.009  0.00  0.00    -0.273 N 
ATOM      3  N   UNL     1      34.712 -22.436 -17.765  0.00  0.00    -0.231 N 
ATOM      4  N   UNL     1      36.510 -23.264 -16.468  0.00  0.00    -0.332 NA
ATOM      5  N   UNL     1      34.227 -23.716 -15.839  0.00  0.00    -0.313 NA
ATOM      6  N   UNL     1      33.740 -24.991 -13.923  0.00  0.00    -0.332 N 
ATOM      7  C   UNL     1      35.031 -20.582 -19.355  0.00  0.00    +0.116 C 
ATOM      8  C   UNL     1      33.046 -22.066 -19.537  0.00  0.00    +0.116 C 
ATOM      9  C   UNL     1      35.657 -21.808 -18.690  0.00  0.00    +0.125 C 
ATOM     10  C   UNL     1      33.280 -22.318 -18.050  0.00  0.00    +0.125 C 
ATOM     11  C   UNL     1      33.196 -20.102 -21.024  0.00  0.00    +0.270 C 
ATOM     12  C   UNL     1      35.160 -23.159 -16.661  0.00  0.00    +0.204 C 
ATOM     13  C   UNL     1      36.948 -23.960 -15.405  0.00  0.00    +0.134 C 
ATOM     14  C   UNL     1      36.056 -24.568 -14.507  0.00  0.00    +0.074 C 
ATOM     15  C   UNL     1      34.701 -24.406 -14.784  0.00  0.00    +0.193 C 
ATOM     16  C   UNL     1      38.313 -24.100 -15.161  0.00  0.00    +0.127 C 
ATOM     17  C   UNL     1      36.526 -25.293 -13.399  0.00  0.00    +0.046 C 
ATOM     18  C   UNL     1      38.788 -24.820 -14.059  0.00  0.00    +0.157 C 
ATOM     19  C   UNL     1      37.895 -25.417 -13.178  0.00  0.00    +0.169 C 
ATOM     20  H   UNL     1      32.780 -24.883 -14.110  0.00  0.00    +0.145 HD
ATOM     21  H   UNL     1      34.033 -25.506 -13.137  0.00  0.00    +0.145 HD
ENDROOT
BRANCH  11  24
ATOM     22  O   UNL     1      33.185 -17.789 -21.046  0.00  0.00    -0.463 OA
ATOM     23  O   UNL     1      34.954 -17.740 -23.323  0.00  0.00    -0.468 OA
ATOM     24  C   UNL     1      33.981 -18.905 -21.445  0.00  0.00    +0.284 C 
ATOM     25  C   UNL     1      34.195 -18.892 -22.946  0.00  0.00    +0.258 C 
ATOM     26  C   UNL     1      33.618 -16.625 -21.625  0.00  0.00    +0.173 C 
ATOM     27  C   UNL     1      34.485 -16.601 -22.721  0.00  0.00    +0.172 C 
ATOM     28  C   UNL     1      33.149 -15.430 -21.079  0.00  0.00    +0.040 C 
ATOM     29  C   UNL     1      34.916 -15.382 -23.244  0.00  0.00    +0.040 C 
ATOM     30  C   UNL     1      33.569 -14.212 -21.612  0.00  0.00    +0.003 C 
ATOM     31  C   UNL     1      34.456 -14.188 -22.690  0.00  0.00    +0.003 C 
ENDBRANCH  11  24
BRANCH  18  32
ATOM     32  O   UNL     1      40.133 -24.928 -13.865  0.00  0.00    -0.472 OA
ATOM     33  C   UNL     1      40.788 -26.062 -14.394  0.00  0.00    +0.252 C 
ENDBRANCH  18  32
BRANCH  19  34
ATOM     34  O   UNL     1      38.344 -26.122 -12.103  0.00  0.00    -0.469 OA
ATOM     35  C   UNL     1      37.390 -26.773 -11.290  0.00  0.00    +0.253 C 
ENDBRANCH  19  34
TORSDOF 3
ENDMDL
MODEL 6
REMARK VINA RESULT:      -8.2      2.215     11.576
REMARK  Name = 3157
REMARK  3 active torsions:
REMARK  status: ('A' for Active; 'I' for Inactive)
REMARK    1  A    between atoms: C_11  and  C_24
REMARK    2  A    between atoms: C_18  and  O_32
REMARK    3  A    between atoms: C_19  and  O_34
REMARK                            x       y       z     vdW  Elec       q    Type
REMARK                         _______ _______ _______ _____ _____    ______ ____
ROOT
ATOM      1  O   UNL     1      30.844  -6.636 -22.618  0.00  0.00    -0.271 OA
ATOM      2  N   UNL     1      32.059  -8.590 -22.943  0.00  0.00    -0.273 N 
ATOM      3  N   UNL     1      32.546 -11.394 -22.418  0.00  0.00    -0.231 N 
ATOM      4  N   UNL     1      33.495 -13.462 -23.068  0.00  0.00    -0.332 NA
ATOM      5  N   UNL     1      32.356 -13.239 -20.955  0.00  0.00    -0.313 NA
ATOM      6  N   UNL     1      32.165 -15.075 -19.496  0.00  0.00    -0.332 N 
ATOM      7  C   UNL     1      33.230  -9.282 -23.487  0.00  0.00    +0.116 C 
ATOM      8  C   UNL     1      31.100  -9.414 -22.212  0.00  0.00    +0.116 C 
ATOM      9  C   UNL     1      32.999 -10.782 -23.669  0.00  0.00    +0.125 C 
ATOM     10  C   UNL     1      31.778 -10.569 -21.482  0.00  0.00    +0.125 C 
ATOM     11  C   UNL     1      31.830  -7.220 -23.076  0.00  0.00    +0.270 C 
ATOM     12  C   UNL     1      32.805 -12.734 -22.138  0.00  0.00    +0.204 C 
ATOM     13  C   UNL     1      33.747 -14.756 -22.805  0.00  0.00    +0.134 C 
ATOM     14  C   UNL     1      33.321 -15.357 -21.610  0.00  0.00    +0.074 C 
ATOM     15  C   UNL     1      32.627 -14.538 -20.724  0.00  0.00    +0.193 C 
ATOM     16  C   UNL     1      34.446 -15.544 -23.717  0.00  0.00    +0.127 C 
ATOM     17  C   UNL     1      33.591 -16.711 -21.345  0.00  0.00    +0.046 C 
ATOM     18  C   UNL     1      34.718 -16.892 -23.460  0.00  0.00    +0.157 C 
ATOM     19  C   UNL     1      34.291 -17.476 -22.274  0.00  0.00    +0.169 C 
ATOM     20  H   UNL     1      31.672 -14.505 -18.863  0.00  0.00    +0.145 HD
ATOM     21  H   UNL     1      32.336 -16.020 -19.277  0.00  0.00    +0.145 HD
ENDROOT
BRANCH  11  24
ATOM     22  O   UNL     1      32.136  -5.813 -24.885  0.00  0.00    -0.463 OA
ATOM     23  O   UNL     1      34.900  -6.605 -25.112  0.00  0.00    -0.468 OA
ATOM     24  C   UNL     1      32.859  -6.449 -23.831  0.00  0.00    +0.284 C 
ATOM     25  C   UNL     1      33.923  -7.369 -24.399  0.00  0.00    +0.258 C 
ATOM     26  C   UNL     1      32.977  -5.311 -25.844  0.00  0.00    +0.173 C 
ATOM     27  C   UNL     1      34.319  -5.686 -25.947  0.00  0.00    +0.172 C 
ATOM     28  C   UNL     1      32.436  -4.396 -26.747  0.00  0.00    +0.040 C 
ATOM     29  C   UNL     1      35.132  -5.114 -26.925  0.00  0.00    +0.040 C 
ATOM     30  C   UNL     1      33.246  -3.834 -27.734  0.00  0.00    +0.003 C 
ATOM     31  C   UNL     1      34.594  -4.188 -27.819  0.00  0.00    +0.003 C 
ENDBRANCH  11  24
BRANCH  18  32
ATOM     32  O   UNL     1      35.404 -17.620 -24.385  0.00  0.00    -0.472 OA
ATOM     33  C   UNL     1      34.659 -18.388 -25.307  0.00  0.00    +0.252 C 
ENDBRANCH  18  32
BRANCH  19  34
ATOM     34  O   UNL     1      34.549 -18.787 -22.011  0.00  0.00    -0.469 OA
ATOM     35  C   UNL     1      33.769 -19.433 -21.026  0.00  0.00    +0.253 C 
ENDBRANCH  19  34
TORSDOF 3
ENDMDL
MODEL 7
REMARK VINA RESULT:      -8.0      1.421      2.162
REMARK  Name = 3157
REMARK  3 active torsions:
REMARK  status: ('A' for Active; 'I' for Inactive)
REMARK    1  A    between atoms: C_11  and  C_24
REMARK    2  A    between atoms: C_18  and  O_32
REMARK    3  A    between atoms: C_19  and  O_34
REMARK                            x       y       z     vdW  Elec       q    Type
REMARK                         _______ _______ _______ _____ _____    ______ ____
ROOT
ATOM      1  O   UNL     1      34.576 -18.563 -25.875  0.00  0.00    -0.271 OA
ATOM      2  N   UNL     1      34.202 -16.870 -24.327  0.00  0.00    -0.273 N 
ATOM      3  N   UNL     1      33.595 -14.117 -23.671  0.00  0.00    -0.231 N 
ATOM      4  N   UNL     1      32.794 -12.511 -22.131  0.00  0.00    -0.332 NA
ATOM      5  N   UNL     1      33.651 -11.835 -24.280  0.00  0.00    -0.313 NA
ATOM      6  N   UNL     1      33.706  -9.564 -24.891  0.00  0.00    -0.332 N 
ATOM      7  C   UNL     1      34.215 -16.388 -22.944  0.00  0.00    +0.116 C 
ATOM      8  C   UNL     1      33.764 -15.916 -25.342  0.00  0.00    +0.116 C 
ATOM      9  C   UNL     1      33.289 -15.192 -22.724  0.00  0.00    +0.125 C 
ATOM     10  C   UNL     1      34.143 -14.483 -24.981  0.00  0.00    +0.125 C 
ATOM     11  C   UNL     1      34.587 -18.156 -24.710  0.00  0.00    +0.270 C 
ATOM     12  C   UNL     1      33.340 -12.785 -23.354  0.00  0.00    +0.204 C 
ATOM     13  C   UNL     1      32.545 -11.227 -21.818  0.00  0.00    +0.134 C 
ATOM     14  C   UNL     1      32.833 -10.185 -22.714  0.00  0.00    +0.074 C 
ATOM     15  C   UNL     1      33.388 -10.561 -23.934  0.00  0.00    +0.193 C 
ATOM     16  C   UNL     1      31.989 -10.891 -20.586  0.00  0.00    +0.127 C 
ATOM     17  C   UNL     1      32.569  -8.846 -22.376  0.00  0.00    +0.046 C 
ATOM     18  C   UNL     1      31.724  -9.561 -20.243  0.00  0.00    +0.157 C 
ATOM     19  C   UNL     1      32.013  -8.538 -21.138  0.00  0.00    +0.169 C 
ATOM     20  H   UNL     1      34.098  -9.819 -25.757  0.00  0.00    +0.145 HD
ATOM     21  H   UNL     1      33.534  -8.616 -24.688  0.00  0.00    +0.145 HD
ENDROOT
BRANCH  11  24
ATOM     22  O   UNL     1      33.847 -19.301 -22.843  0.00  0.00    -0.463 OA
ATOM     23  O   UNL     1      36.504 -19.314 -21.721  0.00  0.00    -0.468 OA
ATOM     24  C   UNL     1      35.025 -19.067 -23.614  0.00  0.00    +0.284 C 
ATOM     25  C   UNL     1      36.097 -18.418 -22.759  0.00  0.00    +0.258 C 
ATOM     26  C   UNL     1      34.140 -19.873 -21.632  0.00  0.00    +0.173 C 
ATOM     27  C   UNL     1      35.429 -19.889 -21.094  0.00  0.00    +0.172 C 
ATOM     28  C   UNL     1      33.082 -20.447 -20.927  0.00  0.00    +0.040 C 
ATOM     29  C   UNL     1      35.669 -20.517 -19.872  0.00  0.00    +0.040 C 
ATOM     30  C   UNL     1      33.320 -21.062 -19.698  0.00  0.00    +0.003 C 
ATOM     31  C   UNL     1      34.612 -21.103 -19.174  0.00  0.00    +0.003 C 
ENDBRANCH  11  24
BRANCH  18  32
ATOM     32  O   UNL     1      31.178  -9.283 -19.025  0.00  0.00    -0.472 OA
ATOM     33  C   UNL     1      31.148 -10.318 -18.063  0.00  0.00    +0.252 C 
ENDBRANCH  18  32
BRANCH  19  34
ATOM     34  O   UNL     1      31.758  -7.240 -20.817  0.00  0.00    -0.469 OA
ATOM     35  C   UNL     1      32.063  -6.247 -21.775  0.00  0.00    +0.253 C 
ENDBRANCH  19  34
TORSDOF 3
ENDMDL
MODEL 8
REMARK VINA RESULT:      -7.7      3.995      6.942
REMARK  Name = 3157
REMARK  3 active torsions:
REMARK  status: ('A' for Active; 'I' for Inactive)
REMARK    1  A    between atoms: C_11  and  C_24
REMARK    2  A    between atoms: C_18  and  O_32
REMARK    3  A    between atoms: C_19  and  O_34
REMARK                            x       y       z     vdW  Elec       q    Type
REMARK                         _______ _______ _______ _____ _____    ______ ____
ROOT
ATOM      1  O   UNL     1      32.160 -12.411 -20.865  0.00  0.00    -0.271 OA
ATOM      2  N   UNL     1      32.865 -10.916 -22.499  0.00  0.00    -0.273 N 
ATOM      3  N   UNL     1      32.724  -8.344 -23.819  0.00  0.00    -0.231 N 
ATOM      4  N   UNL     1      33.724  -6.685 -25.177  0.00  0.00    -0.332 NA
ATOM      5  N   UNL     1      31.460  -6.432 -24.390  0.00  0.00    -0.313 NA
ATOM      6  N   UNL     1      30.198  -4.529 -24.956  0.00  0.00    -0.332 N 
ATOM      7  C   UNL     1      33.641 -10.628 -23.707  0.00  0.00    +0.116 C 
ATOM      8  C   UNL     1      32.101  -9.805 -21.938  0.00  0.00    +0.116 C 
ATOM      9  C   UNL     1      33.952  -9.141 -23.871  0.00  0.00    +0.125 C 
ATOM     10  C   UNL     1      31.604  -8.850 -23.020  0.00  0.00    +0.125 C 
ATOM     11  C   UNL     1      32.813 -12.167 -21.883  0.00  0.00    +0.270 C 
ATOM     12  C   UNL     1      32.632  -7.121 -24.479  0.00  0.00    +0.204 C 
ATOM     13  C   UNL     1      33.642  -5.505 -25.816  0.00  0.00    +0.134 C 
ATOM     14  C   UNL     1      32.472  -4.730 -25.777  0.00  0.00    +0.074 C 
ATOM     15  C   UNL     1      31.412  -5.255 -25.042  0.00  0.00    +0.193 C 
ATOM     16  C   UNL     1      34.724  -5.013 -26.542  0.00  0.00    +0.127 C 
ATOM     17  C   UNL     1      32.397  -3.497 -26.449  0.00  0.00    +0.046 C 
ATOM     18  C   UNL     1      34.657  -3.788 -27.213  0.00  0.00    +0.157 C 
ATOM     19  C   UNL     1      33.494  -3.030 -27.167  0.00  0.00    +0.169 C 
ATOM     20  H   UNL     1      29.443  -4.891 -24.438  0.00  0.00    +0.145 HD
ATOM     21  H   UNL     1      30.110  -3.662 -25.414  0.00  0.00    +0.145 HD
ENDROOT
BRANCH  11  24
ATOM     22  O   UNL     1      32.905 -13.579 -23.712  0.00  0.00    -0.463 OA
ATOM     23  O   UNL     1      34.500 -15.480 -22.244  0.00  0.00    -0.468 OA
ATOM     24  C   UNL     1      33.618 -13.250 -22.520  0.00  0.00    +0.284 C 
ATOM     25  C   UNL     1      33.720 -14.461 -21.613  0.00  0.00    +0.258 C 
ATOM     26  C   UNL     1      33.346 -14.756 -24.258  0.00  0.00    +0.173 C 
ATOM     27  C   UNL     1      34.129 -15.672 -23.549  0.00  0.00    +0.172 C 
ATOM     28  C   UNL     1      32.973 -15.027 -25.574  0.00  0.00    +0.040 C 
ATOM     29  C   UNL     1      34.575 -16.838 -24.171  0.00  0.00    +0.040 C 
ATOM     30  C   UNL     1      33.407 -16.200 -26.191  0.00  0.00    +0.003 C 
ATOM     31  C   UNL     1      34.212 -17.102 -25.492  0.00  0.00    +0.003 C 
ENDBRANCH  11  24
BRANCH  18  32
ATOM     32  O   UNL     1      35.744  -3.350 -27.910  0.00  0.00    -0.472 OA
ATOM     33  C   UNL     1      36.168  -4.111 -29.022  0.00  0.00    +0.252 C 
ENDBRANCH  18  32
BRANCH  19  34
ATOM     34  O   UNL     1      33.416  -1.835 -27.815  0.00  0.00    -0.469 OA
ATOM     35  C   UNL     1      32.729  -1.792 -29.049  0.00  0.00    +0.253 C 
ENDBRANCH  19  34
TORSDOF 3
ENDMDL
