MODEL 1
REMARK VINA RESULT:      -7.2      0.000      0.000
REMARK  Name = 40973
REMARK  3 active torsions:
REMARK  status: ('A' for Active; 'I' for Inactive)
REMARK    1  A    between atoms: C_1  and  C_21
REMARK    2  A    between atoms: C_5  and  O_19
REMARK    3  A    between atoms: C_5  and  C_23
REMARK                            x       y       z     vdW  Elec       q    Type
REMARK                         _______ _______ _______ _____ _____    ______ ____
ROOT
ATOM      1  C   UNL     1      35.886 -23.616 -15.324  0.00  0.00    +0.037 C 
ATOM      2  C   UNL     1      34.936 -23.915 -14.139  0.00  0.00    +0.004 C 
ATOM      3  C   UNL     1      33.574 -23.206 -14.261  0.00  0.00    +0.004 C 
ATOM      4  C   UNL     1      32.882 -23.684 -15.584  0.00  0.00    +0.022 C 
ATOM      5  C   UNL     1      37.157 -24.391 -14.865  0.00  0.00    +0.142 C 
ATOM      6  C   UNL     1      35.805 -23.653 -12.912  0.00  0.00    +0.004 C 
ATOM      7  C   UNL     1      35.201 -24.091 -16.624  0.00  0.00    +0.025 C 
ATOM      8  C   UNL     1      37.224 -24.080 -13.346  0.00  0.00    +0.039 C 
ATOM      9  C   UNL     1      31.414 -23.159 -15.725  0.00  0.00    +0.022 C 
ATOM     10  C   UNL     1      32.695 -23.489 -13.037  0.00  0.00    +0.005 C 
ATOM     11  C   UNL     1      33.840 -23.414 -16.758  0.00  0.00    -0.044 C 
ATOM     12  C   UNL     1      31.342 -22.807 -13.175  0.00  0.00    +0.022 C 
ATOM     13  C   UNL     1      30.635 -23.271 -14.417  0.00  0.00    -0.048 C 
ATOM     14  C   UNL     1      30.681 -23.907 -16.871  0.00  0.00    +0.005 C 
ATOM     15  C   UNL     1      29.179 -23.651 -16.854  0.00  0.00    +0.005 C 
ATOM     16  C   UNL     1      29.373 -23.733 -14.352  0.00  0.00    -0.035 C 
ATOM     17  C   UNL     1      33.603 -22.604 -17.803  0.00  0.00    -0.009 C 
ATOM     18  C   UNL     1      28.566 -24.136 -15.546  0.00  0.00    +0.025 C 
ENDROOT
BRANCH   5  19
ATOM     19  O   UNL     1      38.338 -23.918 -15.497  0.00  0.00    -0.375 OA
ATOM     20  H   UNL     1      39.114 -24.335 -15.090  0.00  0.00    +0.211 HD
ENDBRANCH   5  19
BRANCH   1  21
ATOM     21  C   UNL     1      36.232 -22.102 -15.475  0.00  0.00    +0.004 C 
ATOM     22  C   UNL     1      36.938 -21.858 -16.780  0.00  0.00    +0.000 C 
ENDBRANCH   1  21
BRANCH   5  23
ATOM     23  C   UNL     1      37.073 -25.849 -15.076  0.00  0.00    -0.053 C 
ATOM     24  C   UNL     1      37.003 -27.035 -15.247  0.00  0.00    -0.012 C 
ENDBRANCH   5  23
TORSDOF 3
ENDMDL
MODEL 2
REMARK VINA RESULT:      -7.1      8.975     11.775
REMARK  Name = 40973
REMARK  3 active torsions:
REMARK  status: ('A' for Active; 'I' for Inactive)
REMARK    1  A    between atoms: C_1  and  C_21
REMARK    2  A    between atoms: C_5  and  O_19
REMARK    3  A    between atoms: C_5  and  C_23
REMARK                            x       y       z     vdW  Elec       q    Type
REMARK                         _______ _______ _______ _____ _____    ______ ____
ROOT
ATOM      1  C   UNL     1      34.530 -18.096 -22.273  0.00  0.00    +0.037 C 
ATOM      2  C   UNL     1      34.725 -17.652 -23.744  0.00  0.00    +0.004 C 
ATOM      3  C   UNL     1      33.787 -16.504 -24.159  0.00  0.00    +0.004 C 
ATOM      4  C   UNL     1      34.064 -15.273 -23.229  0.00  0.00    +0.022 C 
ATOM      5  C   UNL     1      35.537 -19.283 -22.204  0.00  0.00    +0.142 C 
ATOM      6  C   UNL     1      34.686 -18.965 -24.520  0.00  0.00    +0.004 C 
ATOM      7  C   UNL     1      34.806 -16.881 -21.361  0.00  0.00    +0.025 C 
ATOM      8  C   UNL     1      35.327 -19.997 -23.566  0.00  0.00    +0.039 C 
ATOM      9  C   UNL     1      33.286 -13.989 -23.672  0.00  0.00    +0.022 C 
ATOM     10  C   UNL     1      33.981 -16.142 -25.637  0.00  0.00    +0.005 C 
ATOM     11  C   UNL     1      33.898 -15.724 -21.765  0.00  0.00    -0.044 C 
ATOM     12  C   UNL     1      33.070 -14.991 -26.035  0.00  0.00    +0.022 C 
ATOM     13  C   UNL     1      33.334 -13.781 -25.184  0.00  0.00    -0.048 C 
ATOM     14  C   UNL     1      33.831 -12.743 -22.925  0.00  0.00    +0.005 C 
ATOM     15  C   UNL     1      33.321 -11.441 -23.531  0.00  0.00    +0.005 C 
ATOM     16  C   UNL     1      33.575 -12.586 -25.752  0.00  0.00    -0.035 C 
ATOM     17  C   UNL     1      33.003 -15.246 -20.886  0.00  0.00    -0.009 C 
ATOM     18  C   UNL     1      33.765 -11.316 -24.984  0.00  0.00    +0.025 C 
ENDROOT
BRANCH   5  19
ATOM     19  O   UNL     1      35.240 -20.184 -21.146  0.00  0.00    -0.375 OA
ATOM     20  H   UNL     1      34.734 -20.936 -21.493  0.00  0.00    +0.211 HD
ENDBRANCH   5  19
BRANCH   1  21
ATOM     21  C   UNL     1      33.092 -18.622 -21.971  0.00  0.00    +0.004 C 
ATOM     22  C   UNL     1      33.037 -19.221 -20.593  0.00  0.00    +0.000 C 
ENDBRANCH   1  21
BRANCH   5  23
ATOM     23  C   UNL     1      36.944 -18.861 -22.070  0.00  0.00    -0.053 C 
ATOM     24  C   UNL     1      38.090 -18.518 -21.961  0.00  0.00    -0.012 C 
ENDBRANCH   5  23
TORSDOF 3
ENDMDL
MODEL 3
REMARK VINA RESULT:      -5.4      1.292      2.053
REMARK  Name = 40973
REMARK  3 active torsions:
REMARK  status: ('A' for Active; 'I' for Inactive)
REMARK    1  A    between atoms: C_1  and  C_21
REMARK    2  A    between atoms: C_5  and  O_19
REMARK    3  A    between atoms: C_5  and  C_23
REMARK                            x       y       z     vdW  Elec       q    Type
REMARK                         _______ _______ _______ _____ _____    ______ ____
ROOT
ATOM      1  C   UNL     1      37.014 -24.221 -13.975  0.00  0.00    +0.037 C 
ATOM      2  C   UNL     1      35.707 -24.753 -13.338  0.00  0.00    +0.004 C 
ATOM      3  C   UNL     1      34.501 -23.823 -13.563  0.00  0.00    +0.004 C 
ATOM      4  C   UNL     1      34.273 -23.668 -15.106  0.00  0.00    +0.022 C 
ATOM      5  C   UNL     1      38.019 -25.317 -13.510  0.00  0.00    +0.142 C 
ATOM      6  C   UNL     1      36.124 -25.103 -11.913  0.00  0.00    +0.004 C 
ATOM      7  C   UNL     1      36.785 -24.072 -15.495  0.00  0.00    +0.025 C 
ATOM      8  C   UNL     1      37.585 -25.587 -12.045  0.00  0.00    +0.039 C 
ATOM      9  C   UNL     1      32.964 -22.880 -15.450  0.00  0.00    +0.022 C 
ATOM     10  C   UNL     1      33.249 -24.368 -12.865  0.00  0.00    +0.005 C 
ATOM     11  C   UNL     1      35.583 -23.167 -15.742  0.00  0.00    -0.044 C 
ATOM     12  C   UNL     1      32.056 -23.457 -13.110  0.00  0.00    +0.022 C 
ATOM     13  C   UNL     1      31.787 -23.315 -14.582  0.00  0.00    -0.048 C 
ATOM     14  C   UNL     1      32.626 -23.029 -16.957  0.00  0.00    +0.005 C 
ATOM     15  C   UNL     1      31.220 -22.539 -17.280  0.00  0.00    +0.005 C 
ATOM     16  C   UNL     1      30.556 -23.543 -15.077  0.00  0.00    -0.035 C 
ATOM     17  C   UNL     1      35.749 -22.009 -16.402  0.00  0.00    -0.009 C 
ATOM     18  C   UNL     1      30.180 -23.345 -16.512  0.00  0.00    +0.025 C 
ENDROOT
BRANCH   5  19
ATOM     19  O   UNL     1      39.365 -24.862 -13.530  0.00  0.00    -0.375 OA
ATOM     20  H   UNL     1      39.558 -24.458 -14.390  0.00  0.00    +0.211 HD
ENDBRANCH   5  19
BRANCH   1  21
ATOM     21  C   UNL     1      37.462 -22.838 -13.408  0.00  0.00    +0.004 C 
ATOM     22  C   UNL     1      37.268 -22.801 -11.916  0.00  0.00    +0.000 C 
ENDBRANCH   1  21
BRANCH   5  23
ATOM     23  C   UNL     1      37.942 -26.565 -14.295  0.00  0.00    -0.053 C 
ATOM     24  C   UNL     1      37.878 -27.579 -14.933  0.00  0.00    -0.012 C 
ENDBRANCH   5  23
TORSDOF 3
ENDMDL
MODEL 4
REMARK VINA RESULT:      -4.8      4.745      7.882
REMARK  Name = 40973
REMARK  3 active torsions:
REMARK  status: ('A' for Active; 'I' for Inactive)
REMARK    1  A    between atoms: C_1  and  C_21
REMARK    2  A    between atoms: C_5  and  O_19
REMARK    3  A    between atoms: C_5  and  C_23
REMARK                            x       y       z     vdW  Elec       q    Type
REMARK                         _______ _______ _______ _____ _____    ______ ____
ROOT
ATOM      1  C   UNL     1      35.012 -19.183 -21.468  0.00  0.00    +0.037 C 
ATOM      2  C   UNL     1      33.886 -19.628 -20.503  0.00  0.00    +0.004 C 
ATOM      3  C   UNL     1      34.150 -20.999 -19.855  0.00  0.00    +0.004 C 
ATOM      4  C   UNL     1      35.491 -20.917 -19.047  0.00  0.00    +0.022 C 
ATOM      5  C   UNL     1      34.415 -17.844 -21.996  0.00  0.00    +0.142 C 
ATOM      6  C   UNL     1      32.615 -19.423 -21.322  0.00  0.00    +0.004 C 
ATOM      7  C   UNL     1      36.330 -19.101 -20.667  0.00  0.00    +0.025 C 
ATOM      8  C   UNL     1      32.916 -18.189 -22.201  0.00  0.00    +0.039 C 
ATOM      9  C   UNL     1      35.772 -22.206 -18.204  0.00  0.00    +0.022 C 
ATOM     10  C   UNL     1      32.981 -21.417 -18.955  0.00  0.00    +0.005 C 
ATOM     11  C   UNL     1      36.604 -20.446 -20.001  0.00  0.00    -0.044 C 
ATOM     12  C   UNL     1      33.259 -22.761 -18.299  0.00  0.00    +0.022 C 
ATOM     13  C   UNL     1      34.522 -22.707 -17.486  0.00  0.00    -0.048 C 
ATOM     14  C   UNL     1      36.924 -21.950 -17.196  0.00  0.00    +0.005 C 
ATOM     15  C   UNL     1      37.035 -23.061 -16.158  0.00  0.00    +0.005 C 
ATOM     16  C   UNL     1      34.525 -23.108 -16.201  0.00  0.00    -0.035 C 
ATOM     17  C   UNL     1      37.709 -21.135 -20.330  0.00  0.00    -0.009 C 
ATOM     18  C   UNL     1      35.750 -23.166 -15.345  0.00  0.00    +0.025 C 
ENDROOT
BRANCH   5  19
ATOM     19  O   UNL     1      34.984 -17.449 -23.236  0.00  0.00    -0.375 OA
ATOM     20  H   UNL     1      35.950 -17.529 -23.190  0.00  0.00    +0.211 HD
ENDBRANCH   5  19
BRANCH   1  21
ATOM     21  C   UNL     1      35.224 -20.160 -22.666  0.00  0.00    +0.004 C 
ATOM     22  C   UNL     1      35.148 -19.411 -23.968  0.00  0.00    +0.000 C 
ENDBRANCH   1  21
BRANCH   5  23
ATOM     23  C   UNL     1      34.547 -16.720 -21.048  0.00  0.00    -0.053 C 
ATOM     24  C   UNL     1      34.654 -15.806 -20.278  0.00  0.00    -0.012 C 
ENDBRANCH   5  23
TORSDOF 3
ENDMDL
MODEL 5
REMARK VINA RESULT:      -4.7      2.563      4.374
REMARK  Name = 40973
REMARK  3 active torsions:
REMARK  status: ('A' for Active; 'I' for Inactive)
REMARK    1  A    between atoms: C_1  and  C_21
REMARK    2  A    between atoms: C_5  and  O_19
REMARK    3  A    between atoms: C_5  and  C_23
REMARK                            x       y       z     vdW  Elec       q    Type
REMARK                         _______ _______ _______ _____ _____    ______ ____
ROOT
ATOM      1  C   UNL     1      36.897 -23.900 -14.354  0.00  0.00    +0.037 C 
ATOM      2  C   UNL     1      35.614 -24.322 -15.111  0.00  0.00    +0.004 C 
ATOM      3  C   UNL     1      34.993 -23.179 -15.936  0.00  0.00    +0.004 C 
ATOM      4  C   UNL     1      36.050 -22.692 -16.985  0.00  0.00    +0.022 C 
ATOM      5  C   UNL     1      37.213 -25.217 -13.584  0.00  0.00    +0.142 C 
ATOM      6  C   UNL     1      34.775 -25.005 -14.035  0.00  0.00    +0.004 C 
ATOM      7  C   UNL     1      37.936 -23.424 -15.393  0.00  0.00    +0.025 C 
ATOM      8  C   UNL     1      35.811 -25.690 -13.115  0.00  0.00    +0.039 C 
ATOM      9  C   UNL     1      35.467 -21.647 -17.994  0.00  0.00    +0.022 C 
ATOM     10  C   UNL     1      33.697 -23.634 -16.617  0.00  0.00    +0.005 C 
ATOM     11  C   UNL     1      37.336 -22.301 -16.234  0.00  0.00    -0.044 C 
ATOM     12  C   UNL     1      33.102 -22.508 -17.450  0.00  0.00    +0.022 C 
ATOM     13  C   UNL     1      34.078 -22.040 -18.492  0.00  0.00    -0.048 C 
ATOM     14  C   UNL     1      36.443 -21.443 -19.184  0.00  0.00    +0.005 C 
ATOM     15  C   UNL     1      35.798 -20.673 -20.330  0.00  0.00    +0.005 C 
ATOM     16  C   UNL     1      33.713 -21.961 -19.784  0.00  0.00    -0.035 C 
ATOM     17  C   UNL     1      37.897 -21.081 -16.207  0.00  0.00    -0.009 C 
ATOM     18  C   UNL     1      34.591 -21.429 -20.872  0.00  0.00    +0.025 C 
ENDROOT
BRANCH   5  19
ATOM     19  O   UNL     1      38.041 -24.996 -12.450  0.00  0.00    -0.375 OA
ATOM     20  H   UNL     1      38.096 -25.810 -11.926  0.00  0.00    +0.211 HD
ENDBRANCH   5  19
BRANCH   1  21
ATOM     21  C   UNL     1      36.661 -22.747 -13.330  0.00  0.00    +0.004 C 
ATOM     22  C   UNL     1      37.864 -22.588 -12.440  0.00  0.00    +0.000 C 
ENDBRANCH   1  21
BRANCH   5  23
ATOM     23  C   UNL     1      37.841 -26.258 -14.419  0.00  0.00    -0.053 C 
ATOM     24  C   UNL     1      38.352 -27.105 -15.100  0.00  0.00    -0.012 C 
ENDBRANCH   5  23
TORSDOF 3
ENDMDL
MODEL 6
REMARK VINA RESULT:      -4.6      2.313      6.429
REMARK  Name = 40973
REMARK  3 active torsions:
REMARK  status: ('A' for Active; 'I' for Inactive)
REMARK    1  A    between atoms: C_1  and  C_21
REMARK    2  A    between atoms: C_5  and  O_19
REMARK    3  A    between atoms: C_5  and  C_23
REMARK                            x       y       z     vdW  Elec       q    Type
REMARK                         _______ _______ _______ _____ _____    ______ ____
ROOT
ATOM      1  C   UNL     1      31.847 -23.568 -14.651  0.00  0.00    +0.037 C 
ATOM      2  C   UNL     1      32.827 -23.459 -15.846  0.00  0.00    +0.004 C 
ATOM      3  C   UNL     1      34.271 -23.140 -15.417  0.00  0.00    +0.004 C 
ATOM      4  C   UNL     1      34.772 -24.282 -14.468  0.00  0.00    +0.022 C 
ATOM      5  C   UNL     1      30.508 -23.809 -15.409  0.00  0.00    +0.142 C 
ATOM      6  C   UNL     1      32.110 -22.518 -16.808  0.00  0.00    +0.004 C 
ATOM      7  C   UNL     1      32.344 -24.696 -13.720  0.00  0.00    +0.025 C 
ATOM      8  C   UNL     1      30.610 -22.834 -16.613  0.00  0.00    +0.039 C 
ATOM      9  C   UNL     1      36.290 -24.150 -14.108  0.00  0.00    +0.022 C 
ATOM     10  C   UNL     1      35.186 -22.987 -16.638  0.00  0.00    +0.005 C 
ATOM     11  C   UNL     1      33.781 -24.409 -13.296  0.00  0.00    -0.044 C 
ATOM     12  C   UNL     1      36.616 -22.696 -16.209  0.00  0.00    +0.022 C 
ATOM     13  C   UNL     1      37.140 -23.792 -15.324  0.00  0.00    -0.048 C 
ATOM     14  C   UNL     1      36.801 -25.455 -13.440  0.00  0.00    +0.005 C 
ATOM     15  C   UNL     1      38.322 -25.492 -13.345  0.00  0.00    +0.005 C 
ATOM     16  C   UNL     1      38.313 -24.391 -15.601  0.00  0.00    -0.035 C 
ATOM     17  C   UNL     1      34.063 -24.220 -11.997  0.00  0.00    -0.009 C 
ATOM     18  C   UNL     1      38.949 -25.429 -14.732  0.00  0.00    +0.025 C 
ENDROOT
BRANCH   5  19
ATOM     19  O   UNL     1      29.373 -23.472 -14.624  0.00  0.00    -0.375 OA
ATOM     20  H   UNL     1      29.319 -24.068 -13.860  0.00  0.00    +0.211 HD
ENDBRANCH   5  19
BRANCH   1  21
ATOM     21  C   UNL     1      31.739 -22.254 -13.817  0.00  0.00    +0.004 C 
ATOM     22  C   UNL     1      31.079 -22.531 -12.494  0.00  0.00    +0.000 C 
ENDBRANCH   1  21
BRANCH   5  23
ATOM     23  C   UNL     1      30.340 -25.192 -15.895  0.00  0.00    -0.053 C 
ATOM     24  C   UNL     1      30.203 -26.317 -16.291  0.00  0.00    -0.012 C 
ENDBRANCH   5  23
TORSDOF 3
ENDMDL
MODEL 7
REMARK VINA RESULT:      -4.6     15.013     17.483
REMARK  Name = 40973
REMARK  3 active torsions:
REMARK  status: ('A' for Active; 'I' for Inactive)
REMARK    1  A    between atoms: C_1  and  C_21
REMARK    2  A    between atoms: C_5  and  O_19
REMARK    3  A    between atoms: C_5  and  C_23
REMARK                            x       y       z     vdW  Elec       q    Type
REMARK                         _______ _______ _______ _____ _____    ______ ____
ROOT
ATOM      1  C   UNL     1      32.534  -7.335 -22.673  0.00  0.00    +0.037 C 
ATOM      2  C   UNL     1      33.241  -7.942 -23.909  0.00  0.00    +0.004 C 
ATOM      3  C   UNL     1      33.842  -9.334 -23.641  0.00  0.00    +0.004 C 
ATOM      4  C   UNL     1      32.687 -10.300 -23.207  0.00  0.00    +0.022 C 
ATOM      5  C   UNL     1      32.124  -5.943 -23.240  0.00  0.00    +0.142 C 
ATOM      6  C   UNL     1      34.153  -6.815 -24.386  0.00  0.00    +0.004 C 
ATOM      7  C   UNL     1      31.395  -8.289 -22.251  0.00  0.00    +0.025 C 
ATOM      8  C   UNL     1      33.371  -5.523 -24.063  0.00  0.00    +0.039 C 
ATOM      9  C   UNL     1      33.156 -11.788 -23.075  0.00  0.00    +0.022 C 
ATOM     10  C   UNL     1      34.578  -9.863 -24.878  0.00  0.00    +0.005 C 
ATOM     11  C   UNL     1      31.966  -9.681 -21.995  0.00  0.00    -0.044 C 
ATOM     12  C   UNL     1      35.148 -11.248 -24.615  0.00  0.00    +0.022 C 
ATOM     13  C   UNL     1      34.060 -12.210 -24.230  0.00  0.00    -0.048 C 
ATOM     14  C   UNL     1      31.929 -12.732 -22.958  0.00  0.00    +0.005 C 
ATOM     15  C   UNL     1      32.315 -14.196 -23.127  0.00  0.00    +0.005 C 
ATOM     16  C   UNL     1      33.927 -13.385 -24.873  0.00  0.00    -0.035 C 
ATOM     17  C   UNL     1      31.873 -10.220 -20.769  0.00  0.00    -0.009 C 
ATOM     18  C   UNL     1      32.928 -14.435 -24.502  0.00  0.00    +0.025 C 
ENDROOT
BRANCH   5  19
ATOM     19  O   UNL     1      31.889  -4.988 -22.215  0.00  0.00    -0.375 OA
ATOM     20  H   UNL     1      31.721  -4.119 -22.614  0.00  0.00    +0.211 HD
ENDBRANCH   5  19
BRANCH   1  21
ATOM     21  C   UNL     1      33.485  -7.134 -21.452  0.00  0.00    +0.004 C 
ATOM     22  C   UNL     1      32.683  -6.963 -20.191  0.00  0.00    +0.000 C 
ENDBRANCH   1  21
BRANCH   5  23
ATOM     23  C   UNL     1      30.935  -5.985 -24.114  0.00  0.00    -0.053 C 
ATOM     24  C   UNL     1      29.970  -6.019 -24.825  0.00  0.00    -0.012 C 
ENDBRANCH   5  23
TORSDOF 3
ENDMDL
