MODEL 1
REMARK VINA RESULT:      -7.4      0.000      0.000
REMARK  Name = 73271
REMARK  3 active torsions:
REMARK  status: ('A' for Active; 'I' for Inactive)
REMARK    1  A    between atoms: C_5  and  C_11
REMARK    2  A    between atoms: C_11  and  C_13
REMARK    3  A    between atoms: C_13  and  O_14
REMARK                            x       y       z     vdW  Elec       q    Type
REMARK                         _______ _______ _______ _____ _____    ______ ____
ROOT
ATOM      1  O   UNL     1      35.181 -25.145 -10.275  0.00  0.00    -0.252 OA
ATOM      2  O   UNL     1      38.358 -22.199 -11.876  0.00  0.00    -0.270 OA
ATOM      3  N   UNL     1      35.732 -25.172 -12.509  0.00  0.00    -0.271 N 
ATOM      4  N   UNL     1      36.770 -23.663 -11.050  0.00  0.00    -0.236 N 
ATOM      5  C   UNL     1      36.464 -24.684 -13.566  0.00  0.00    +0.045 C 
ATOM      6  C   UNL     1      37.350 -23.694 -13.397  0.00  0.00    +0.069 C 
ATOM      7  C   UNL     1      35.844 -24.695 -11.211  0.00  0.00    +0.310 C 
ATOM      8  C   UNL     1      37.551 -23.108 -12.051  0.00  0.00    +0.254 C 
ATOM      9  H   UNL     1      35.094 -25.900 -12.682  0.00  0.00    +0.156 HD
ATOM     10  H   UNL     1      36.879 -23.298 -10.142  0.00  0.00    +0.159 HD
ENDROOT
BRANCH   5  11
ATOM     11  C   UNL     1      36.207 -25.323 -14.895  0.00  0.00    +0.151 C 
BRANCH  11  13
ATOM     12  O   UNL     1      37.716 -27.104 -14.171  0.00  0.00    -0.250 OA
ATOM     13  C   UNL     1      36.980 -26.610 -15.011  0.00  0.00    +0.320 C 
BRANCH  13  14
ATOM     14  O   UNL     1      36.747 -27.169 -16.228  0.00  0.00    -0.480 OA
ATOM     15  H   UNL     1      36.801 -26.644 -17.002  0.00  0.00    +0.295 HD
ENDBRANCH  13  14
ENDBRANCH  11  13
ENDBRANCH   5  11
TORSDOF 3
ENDMDL
MODEL 2
REMARK VINA RESULT:      -7.1      2.497      3.563
REMARK  Name = 73271
REMARK  3 active torsions:
REMARK  status: ('A' for Active; 'I' for Inactive)
REMARK    1  A    between atoms: C_5  and  C_11
REMARK    2  A    between atoms: C_11  and  C_13
REMARK    3  A    between atoms: C_13  and  O_14
REMARK                            x       y       z     vdW  Elec       q    Type
REMARK                         _______ _______ _______ _____ _____    ______ ____
ROOT
ATOM      1  O   UNL     1      35.734 -25.157 -15.833  0.00  0.00    -0.252 OA
ATOM      2  O   UNL     1      36.147 -25.507 -11.246  0.00  0.00    -0.270 OA
ATOM      3  N   UNL     1      37.816 -25.010 -14.865  0.00  0.00    -0.271 N 
ATOM      4  N   UNL     1      35.913 -25.334 -13.540  0.00  0.00    -0.236 N 
ATOM      5  C   UNL     1      38.619 -25.018 -13.750  0.00  0.00    +0.045 C 
ATOM      6  C   UNL     1      38.102 -25.181 -12.524  0.00  0.00    +0.069 C 
ATOM      7  C   UNL     1      36.438 -25.166 -14.823  0.00  0.00    +0.310 C 
ATOM      8  C   UNL     1      36.640 -25.356 -12.360  0.00  0.00    +0.254 C 
ATOM      9  H   UNL     1      38.242 -24.888 -15.743  0.00  0.00    +0.156 HD
ATOM     10  H   UNL     1      34.938 -25.448 -13.468  0.00  0.00    +0.159 HD
ENDROOT
BRANCH   5  11
ATOM     11  C   UNL     1      40.085 -24.835 -13.992  0.00  0.00    +0.151 C 
BRANCH  11  13
ATOM     12  O   UNL     1      41.262 -26.970 -14.166  0.00  0.00    -0.250 OA
ATOM     13  C   UNL     1      40.653 -26.046 -14.683  0.00  0.00    +0.320 C 
BRANCH  13  14
ATOM     14  O   UNL     1      40.391 -25.971 -16.015  0.00  0.00    -0.480 OA
ATOM     15  H   UNL     1      41.014 -26.297 -16.633  0.00  0.00    +0.295 HD
ENDBRANCH  13  14
ENDBRANCH  11  13
ENDBRANCH   5  11
TORSDOF 3
ENDMDL
MODEL 3
REMARK VINA RESULT:      -6.9      1.825      4.174
REMARK  Name = 73271
REMARK  3 active torsions:
REMARK  status: ('A' for Active; 'I' for Inactive)
REMARK    1  A    between atoms: C_5  and  C_11
REMARK    2  A    between atoms: C_11  and  C_13
REMARK    3  A    between atoms: C_13  and  O_14
REMARK                            x       y       z     vdW  Elec       q    Type
REMARK                         _______ _______ _______ _____ _____    ______ ____
ROOT
ATOM      1  O   UNL     1      36.124 -26.528 -15.746  0.00  0.00    -0.252 OA
ATOM      2  O   UNL     1      40.312 -26.122 -13.841  0.00  0.00    -0.270 OA
ATOM      3  N   UNL     1      36.432 -25.095 -13.973  0.00  0.00    -0.271 N 
ATOM      4  N   UNL     1      38.225 -26.344 -14.812  0.00  0.00    -0.236 N 
ATOM      5  C   UNL     1      37.248 -24.521 -13.027  0.00  0.00    +0.045 C 
ATOM      6  C   UNL     1      38.547 -24.836 -12.949  0.00  0.00    +0.069 C 
ATOM      7  C   UNL     1      36.869 -26.024 -14.905  0.00  0.00    +0.310 C 
ATOM      8  C   UNL     1      39.124 -25.820 -13.896  0.00  0.00    +0.254 C 
ATOM      9  H   UNL     1      35.484 -24.831 -13.991  0.00  0.00    +0.156 HD
ATOM     10  H   UNL     1      38.574 -27.001 -15.457  0.00  0.00    +0.159 HD
ENDROOT
BRANCH   5  11
ATOM     11  C   UNL     1      36.597 -23.538 -12.105  0.00  0.00    +0.151 C 
BRANCH  11  13
ATOM     12  O   UNL     1      36.046 -24.228  -9.825  0.00  0.00    -0.250 OA
ATOM     13  C   UNL     1      35.834 -24.263 -11.027  0.00  0.00    +0.320 C 
BRANCH  13  14
ATOM     14  O   UNL     1      34.839 -24.996 -11.594  0.00  0.00    -0.480 OA
ATOM     15  H   UNL     1      34.885 -25.224 -12.501  0.00  0.00    +0.295 HD
ENDBRANCH  13  14
ENDBRANCH  11  13
ENDBRANCH   5  11
TORSDOF 3
ENDMDL
MODEL 4
REMARK VINA RESULT:      -6.8      0.849      2.370
REMARK  Name = 73271
REMARK  3 active torsions:
REMARK  status: ('A' for Active; 'I' for Inactive)
REMARK    1  A    between atoms: C_5  and  C_11
REMARK    2  A    between atoms: C_11  and  C_13
REMARK    3  A    between atoms: C_13  and  O_14
REMARK                            x       y       z     vdW  Elec       q    Type
REMARK                         _______ _______ _______ _____ _____    ______ ____
ROOT
ATOM      1  O   UNL     1      38.487 -22.127 -11.904  0.00  0.00    -0.252 OA
ATOM      2  O   UNL     1      35.229 -24.681  -9.855  0.00  0.00    -0.270 OA
ATOM      3  N   UNL     1      37.293 -23.653 -13.144  0.00  0.00    -0.271 N 
ATOM      4  N   UNL     1      36.866 -23.390 -10.857  0.00  0.00    -0.236 N 
ATOM      5  C   UNL     1      36.322 -24.622 -13.235  0.00  0.00    +0.045 C 
ATOM      6  C   UNL     1      35.611 -24.993 -12.162  0.00  0.00    +0.069 C 
ATOM      7  C   UNL     1      37.614 -22.993 -11.967  0.00  0.00    +0.310 C 
ATOM      8  C   UNL     1      35.870 -24.354 -10.850  0.00  0.00    +0.254 C 
ATOM      9  H   UNL     1      37.789 -23.414 -13.960  0.00  0.00    +0.156 HD
ATOM     10  H   UNL     1      37.065 -22.945 -10.002  0.00  0.00    +0.159 HD
ENDROOT
BRANCH   5  11
ATOM     11  C   UNL     1      36.116 -25.223 -14.590  0.00  0.00    +0.151 C 
BRANCH  11  13
ATOM     12  O   UNL     1      38.018 -26.673 -14.085  0.00  0.00    -0.250 OA
ATOM     13  C   UNL     1      37.095 -26.345 -14.814  0.00  0.00    +0.320 C 
BRANCH  13  14
ATOM     14  O   UNL     1      36.808 -26.967 -15.989  0.00  0.00    -0.480 OA
ATOM     15  H   UNL     1      36.372 -26.499 -16.672  0.00  0.00    +0.295 HD
ENDBRANCH  13  14
ENDBRANCH  11  13
ENDBRANCH   5  11
TORSDOF 3
ENDMDL
MODEL 5
REMARK VINA RESULT:      -6.8      3.334      4.311
REMARK  Name = 73271
REMARK  3 active torsions:
REMARK  status: ('A' for Active; 'I' for Inactive)
REMARK    1  A    between atoms: C_5  and  C_11
REMARK    2  A    between atoms: C_11  and  C_13
REMARK    3  A    between atoms: C_13  and  O_14
REMARK                            x       y       z     vdW  Elec       q    Type
REMARK                         _______ _______ _______ _____ _____    ______ ____
ROOT
ATOM      1  O   UNL     1      37.578 -21.891 -16.436  0.00  0.00    -0.252 OA
ATOM      2  O   UNL     1      34.214 -24.577 -14.763  0.00  0.00    -0.270 OA
ATOM      3  N   UNL     1      38.113 -23.896 -15.443  0.00  0.00    -0.271 N 
ATOM      4  N   UNL     1      35.880 -23.214 -15.608  0.00  0.00    -0.236 N 
ATOM      5  C   UNL     1      37.733 -25.056 -14.811  0.00  0.00    +0.045 C 
ATOM      6  C   UNL     1      36.444 -25.322 -14.565  0.00  0.00    +0.069 C 
ATOM      7  C   UNL     1      37.220 -22.925 -15.870  0.00  0.00    +0.310 C 
ATOM      8  C   UNL     1      35.401 -24.352 -14.979  0.00  0.00    +0.254 C 
ATOM      9  H   UNL     1      39.073 -23.746 -15.601  0.00  0.00    +0.156 HD
ATOM     10  H   UNL     1      35.215 -22.548 -15.896  0.00  0.00    +0.159 HD
ENDROOT
BRANCH   5  11
ATOM     11  C   UNL     1      38.840 -25.987 -14.422  0.00  0.00    +0.151 C 
BRANCH  11  13
ATOM     12  O   UNL     1      40.904 -24.685 -14.295  0.00  0.00    -0.250 OA
ATOM     13  C   UNL     1      40.163 -25.448 -14.895  0.00  0.00    +0.320 C 
BRANCH  13  14
ATOM     14  O   UNL     1      40.434 -25.938 -16.134  0.00  0.00    -0.480 OA
ATOM     15  H   UNL     1      40.303 -25.400 -16.889  0.00  0.00    +0.295 HD
ENDBRANCH  13  14
ENDBRANCH  11  13
ENDBRANCH   5  11
TORSDOF 3
ENDMDL
MODEL 6
REMARK VINA RESULT:      -6.8      1.921      4.047
REMARK  Name = 73271
REMARK  3 active torsions:
REMARK  status: ('A' for Active; 'I' for Inactive)
REMARK    1  A    between atoms: C_5  and  C_11
REMARK    2  A    between atoms: C_11  and  C_13
REMARK    3  A    between atoms: C_13  and  O_14
REMARK                            x       y       z     vdW  Elec       q    Type
REMARK                         _______ _______ _______ _____ _____    ______ ____
ROOT
ATOM      1  O   UNL     1      37.840 -27.292 -14.560  0.00  0.00    -0.252 OA
ATOM      2  O   UNL     1      38.096 -22.872 -15.878  0.00  0.00    -0.270 OA
ATOM      3  N   UNL     1      36.598 -25.703 -13.454  0.00  0.00    -0.271 N 
ATOM      4  N   UNL     1      37.986 -25.092 -15.237  0.00  0.00    -0.236 N 
ATOM      5  C   UNL     1      36.203 -24.396 -13.287  0.00  0.00    +0.045 C 
ATOM      6  C   UNL     1      36.679 -23.422 -14.074  0.00  0.00    +0.069 C 
ATOM      7  C   UNL     1      37.498 -26.116 -14.424  0.00  0.00    +0.310 C 
ATOM      8  C   UNL     1      37.648 -23.750 -15.146  0.00  0.00    +0.254 C 
ATOM      9  H   UNL     1      36.220 -26.382 -12.851  0.00  0.00    +0.156 HD
ATOM     10  H   UNL     1      38.628 -25.345 -15.939  0.00  0.00    +0.159 HD
ENDROOT
BRANCH   5  11
ATOM     11  C   UNL     1      35.223 -24.140 -12.184  0.00  0.00    +0.151 C 
BRANCH  11  13
ATOM     12  O   UNL     1      35.317 -24.580  -9.782  0.00  0.00    -0.250 OA
ATOM     13  C   UNL     1      35.876 -24.365 -10.847  0.00  0.00    +0.320 C 
BRANCH  13  14
ATOM     14  O   UNL     1      37.226 -24.288 -10.984  0.00  0.00    -0.480 OA
ATOM     15  H   UNL     1      37.606 -24.204 -11.837  0.00  0.00    +0.295 HD
ENDBRANCH  13  14
ENDBRANCH  11  13
ENDBRANCH   5  11
TORSDOF 3
ENDMDL
MODEL 7
REMARK VINA RESULT:      -6.7      2.281      4.429
REMARK  Name = 73271
REMARK  3 active torsions:
REMARK  status: ('A' for Active; 'I' for Inactive)
REMARK    1  A    between atoms: C_5  and  C_11
REMARK    2  A    between atoms: C_11  and  C_13
REMARK    3  A    between atoms: C_13  and  O_14
REMARK                            x       y       z     vdW  Elec       q    Type
REMARK                         _______ _______ _______ _____ _____    ______ ____
ROOT
ATOM      1  O   UNL     1      37.276 -22.798 -16.157  0.00  0.00    -0.252 OA
ATOM      2  O   UNL     1      39.214 -26.687 -14.590  0.00  0.00    -0.270 OA
ATOM      3  N   UNL     1      37.177 -23.293 -13.912  0.00  0.00    -0.271 N 
ATOM      4  N   UNL     1      38.251 -24.747 -15.399  0.00  0.00    -0.236 N 
ATOM      5  C   UNL     1      37.469 -24.124 -12.857  0.00  0.00    +0.045 C 
ATOM      6  C   UNL     1      38.147 -25.265 -13.040  0.00  0.00    +0.069 C 
ATOM      7  C   UNL     1      37.546 -23.554 -15.223  0.00  0.00    +0.310 C 
ATOM      8  C   UNL     1      38.592 -25.646 -14.401  0.00  0.00    +0.254 C 
ATOM      9  H   UNL     1      36.677 -22.465 -13.727  0.00  0.00    +0.156 HD
ATOM     10  H   UNL     1      38.531 -24.968 -16.317  0.00  0.00    +0.159 HD
ENDROOT
BRANCH   5  11
ATOM     11  C   UNL     1      36.988 -23.675 -11.512  0.00  0.00    +0.151 C 
BRANCH  11  13
ATOM     12  O   UNL     1      35.317 -25.093 -10.429  0.00  0.00    -0.250 OA
ATOM     13  C   UNL     1      35.615 -24.230 -11.240  0.00  0.00    +0.320 C 
BRANCH  13  14
ATOM     14  O   UNL     1      34.713 -23.622 -12.056  0.00  0.00    -0.480 OA
ATOM     15  H   UNL     1      34.315 -24.102 -12.754  0.00  0.00    +0.295 HD
ENDBRANCH  13  14
ENDBRANCH  11  13
ENDBRANCH   5  11
TORSDOF 3
ENDMDL
MODEL 8
REMARK VINA RESULT:      -6.7      2.575      3.052
REMARK  Name = 73271
REMARK  3 active torsions:
REMARK  status: ('A' for Active; 'I' for Inactive)
REMARK    1  A    between atoms: C_5  and  C_11
REMARK    2  A    between atoms: C_11  and  C_13
REMARK    3  A    between atoms: C_13  and  O_14
REMARK                            x       y       z     vdW  Elec       q    Type
REMARK                         _______ _______ _______ _____ _____    ______ ____
ROOT
ATOM      1  O   UNL     1      37.514 -22.855 -11.180  0.00  0.00    -0.252 OA
ATOM      2  O   UNL     1      34.873 -23.255 -14.948  0.00  0.00    -0.270 OA
ATOM      3  N   UNL     1      38.062 -24.401 -12.792  0.00  0.00    -0.271 N 
ATOM      4  N   UNL     1      36.178 -23.035 -13.051  0.00  0.00    -0.236 N 
ATOM      5  C   UNL     1      37.809 -25.013 -13.997  0.00  0.00    +0.045 C 
ATOM      6  C   UNL     1      36.756 -24.660 -14.746  0.00  0.00    +0.069 C 
ATOM      7  C   UNL     1      37.272 -23.393 -12.261  0.00  0.00    +0.310 C 
ATOM      8  C   UNL     1      35.843 -23.592 -14.275  0.00  0.00    +0.254 C 
ATOM      9  H   UNL     1      38.848 -24.694 -12.278  0.00  0.00    +0.156 HD
ATOM     10  H   UNL     1      35.593 -22.322 -12.708  0.00  0.00    +0.159 HD
ENDROOT
BRANCH   5  11
ATOM     11  C   UNL     1      38.773 -26.082 -14.408  0.00  0.00    +0.151 C 
BRANCH  11  13
ATOM     12  O   UNL     1      40.775 -24.701 -14.168  0.00  0.00    -0.250 OA
ATOM     13  C   UNL     1      40.085 -25.469 -14.820  0.00  0.00    +0.320 C 
BRANCH  13  14
ATOM     14  O   UNL     1      40.411 -25.896 -16.069  0.00  0.00    -0.480 OA
ATOM     15  H   UNL     1      39.735 -26.130 -16.674  0.00  0.00    +0.295 HD
ENDBRANCH  13  14
ENDBRANCH  11  13
ENDBRANCH   5  11
TORSDOF 3
ENDMDL
MODEL 9
REMARK VINA RESULT:      -6.6      7.225      8.149
REMARK  Name = 73271
REMARK  3 active torsions:
REMARK  status: ('A' for Active; 'I' for Inactive)
REMARK    1  A    between atoms: C_5  and  C_11
REMARK    2  A    between atoms: C_11  and  C_13
REMARK    3  A    between atoms: C_13  and  O_14
REMARK                            x       y       z     vdW  Elec       q    Type
REMARK                         _______ _______ _______ _____ _____    ______ ____
ROOT
ATOM      1  O   UNL     1      32.410 -22.612 -18.119  0.00  0.00    -0.252 OA
ATOM      2  O   UNL     1      32.819 -23.807 -13.676  0.00  0.00    -0.270 OA
ATOM      3  N   UNL     1      30.530 -22.741 -16.799  0.00  0.00    -0.271 N 
ATOM      4  N   UNL     1      32.641 -23.212 -15.904  0.00  0.00    -0.236 N 
ATOM      5  C   UNL     1      29.937 -22.988 -15.584  0.00  0.00    +0.045 C 
ATOM      6  C   UNL     1      30.664 -23.346 -14.517  0.00  0.00    +0.069 C 
ATOM      7  C   UNL     1      31.895 -22.838 -17.023  0.00  0.00    +0.310 C 
ATOM      8  C   UNL     1      32.135 -23.480 -14.641  0.00  0.00    +0.254 C 
ATOM      9  H   UNL     1      29.953 -22.481 -17.553  0.00  0.00    +0.156 HD
ATOM     10  H   UNL     1      33.615 -23.291 -16.022  0.00  0.00    +0.159 HD
ENDROOT
BRANCH   5  11
ATOM     11  C   UNL     1      28.448 -22.834 -15.533  0.00  0.00    +0.151 C 
BRANCH  11  13
ATOM     12  O   UNL     1      27.746 -23.786 -17.672  0.00  0.00    -0.250 OA
ATOM     13  C   UNL     1      27.879 -22.827 -16.927  0.00  0.00    +0.320 C 
BRANCH  13  14
ATOM     14  O   UNL     1      27.523 -21.559 -17.263  0.00  0.00    -0.480 OA
ATOM     15  H   UNL     1      27.684 -21.242 -18.130  0.00  0.00    +0.295 HD
ENDBRANCH  13  14
ENDBRANCH  11  13
ENDBRANCH   5  11
TORSDOF 3
ENDMDL
