MODEL 1
REMARK VINA RESULT:      -5.7      0.000      0.000
REMARK  Name = 17753922
REMARK  7 active torsions:
REMARK  status: ('A' for Active; 'I' for Inactive)
REMARK    1  A    between atoms: C_1  and  N_2
REMARK    2  A    between atoms: C_1  and  C_7
REMARK    3  A    between atoms: C_1  and  C_10
REMARK    4  A    between atoms: C_7  and  O_8
REMARK    5  A    between atoms: C_10  and  S_11
REMARK    6  A    between atoms: S_11  and  C_12
REMARK    7  A    between atoms: C_12  and  C_14
REMARK                            x       y       z     vdW  Elec       q    Type
REMARK                         _______ _______ _______ _____ _____    ______ ____
ROOT
ATOM      1  C   UNK     1      38.952 -25.033 -14.554  0.00  0.00    +0.047 C 
ENDROOT
BRANCH   1   2
ATOM      2  N   UNK     1      38.774 -24.107 -15.674  0.00  0.00    +0.389 N 
ATOM      3  H   UNK     1      39.653 -24.017 -16.184  0.00  0.00    -0.088 HD
ATOM      4  H   UNK     1      38.492 -23.193 -15.319  0.00  0.00    -0.088 HD
ATOM      5  H   UNK     1      38.053 -24.465 -16.300  0.00  0.00    -0.088 HD
ENDBRANCH   1   2
BRANCH   1   7
ATOM      6  O   UNK     1      40.888 -26.351 -13.950  0.00  0.00    -0.253 OA
ATOM      7  C   UNK     1      40.198 -25.853 -14.832  0.00  0.00    +0.294 C 
BRANCH   7   8
ATOM      8  O   UNK     1      40.502 -25.956 -16.151  0.00  0.00    -0.482 OA
ATOM      9  H   UNK     1      40.120 -26.637 -16.668  0.00  0.00    +0.295 HD
ENDBRANCH   7   8
ENDBRANCH   1   7
BRANCH   1  10
ATOM     10  C   UNK     1      37.706 -25.907 -14.396  0.00  0.00    +0.047 C 
BRANCH  10  11
ATOM     11  S   UNK     1      37.203 -26.066 -12.653  0.00  0.00    -0.134 S 
BRANCH  11  12
ATOM     12  C   UNK     1      38.000 -24.573 -12.019  0.00  0.00    +0.122 C 
BRANCH  12  14
ATOM     13  O   UNK     1      37.312 -22.333 -11.390  0.00  0.00    -0.295 OA
ATOM     14  C   UNK     1      37.001 -23.464 -11.760  0.00  0.00    +0.162 C 
ATOM     15  C   UNK     1      35.554 -23.823 -11.986  0.00  0.00    +0.073 C 
ENDBRANCH  12  14
ENDBRANCH  11  12
ENDBRANCH  10  11
ENDBRANCH   1  10
TORSDOF 7
ENDMDL
MODEL 2
REMARK VINA RESULT:      -5.6      1.823      2.045
REMARK  Name = 17753922
REMARK  7 active torsions:
REMARK  status: ('A' for Active; 'I' for Inactive)
REMARK    1  A    between atoms: C_1  and  N_2
REMARK    2  A    between atoms: C_1  and  C_7
REMARK    3  A    between atoms: C_1  and  C_10
REMARK    4  A    between atoms: C_7  and  O_8
REMARK    5  A    between atoms: C_10  and  S_11
REMARK    6  A    between atoms: S_11  and  C_12
REMARK    7  A    between atoms: C_12  and  C_14
REMARK                            x       y       z     vdW  Elec       q    Type
REMARK                         _______ _______ _______ _____ _____    ______ ____
ROOT
ATOM      1  C   UNK     1      38.722 -25.725 -14.528  0.00  0.00    +0.047 C 
ENDROOT
BRANCH   1   2
ATOM      2  N   UNK     1      38.745 -26.078 -13.106  0.00  0.00    +0.389 N 
ATOM      3  H   UNK     1      38.167 -26.903 -12.951  0.00  0.00    -0.088 HD
ATOM      4  H   UNK     1      38.382 -25.299 -12.557  0.00  0.00    -0.088 HD
ATOM      5  H   UNK     1      39.705 -26.276 -12.822  0.00  0.00    -0.088 HD
ENDBRANCH   1   2
BRANCH   1   7
ATOM      6  O   UNK     1      40.897 -24.692 -14.291  0.00  0.00    -0.253 OA
ATOM      7  C   UNK     1      40.147 -25.410 -14.944  0.00  0.00    +0.294 C 
BRANCH   7   8
ATOM      8  O   UNK     1      40.508 -25.967 -16.127  0.00  0.00    -0.482 OA
ATOM      9  H   UNK     1      40.355 -25.506 -16.928  0.00  0.00    +0.295 HD
ENDBRANCH   7   8
ENDBRANCH   1   7
BRANCH   1  10
ATOM     10  C   UNK     1      37.776 -24.546 -14.758  0.00  0.00    +0.047 C 
BRANCH  10  11
ATOM     11  S   UNK     1      36.029 -25.059 -14.722  0.00  0.00    -0.134 S 
BRANCH  11  12
ATOM     12  C   UNK     1      35.466 -23.956 -13.406  0.00  0.00    +0.122 C 
BRANCH  12  14
ATOM     13  O   UNK     1      36.125 -25.332 -11.519  0.00  0.00    -0.295 OA
ATOM     14  C   UNK     1      36.159 -24.243 -12.090  0.00  0.00    +0.162 C 
ATOM     15  C   UNK     1      36.924 -23.090 -11.489  0.00  0.00    +0.073 C 
ENDBRANCH  12  14
ENDBRANCH  11  12
ENDBRANCH  10  11
ENDBRANCH   1  10
TORSDOF 7
ENDMDL
MODEL 3
REMARK VINA RESULT:      -5.5      2.882      4.959
REMARK  Name = 17753922
REMARK  7 active torsions:
REMARK  status: ('A' for Active; 'I' for Inactive)
REMARK    1  A    between atoms: C_1  and  N_2
REMARK    2  A    between atoms: C_1  and  C_7
REMARK    3  A    between atoms: C_1  and  C_10
REMARK    4  A    between atoms: C_7  and  O_8
REMARK    5  A    between atoms: C_10  and  S_11
REMARK    6  A    between atoms: S_11  and  C_12
REMARK    7  A    between atoms: C_12  and  C_14
REMARK                            x       y       z     vdW  Elec       q    Type
REMARK                         _______ _______ _______ _____ _____    ______ ____
ROOT
ATOM      1  C   UNK     1      36.944 -23.826 -11.921  0.00  0.00    +0.047 C 
ENDROOT
BRANCH   1   2
ATOM      2  N   UNK     1      37.391 -22.559 -11.337  0.00  0.00    +0.389 N 
ATOM      3  H   UNK     1      37.885 -22.014 -12.044  0.00  0.00    -0.088 HD
ATOM      4  H   UNK     1      38.017 -22.746 -10.554  0.00  0.00    -0.088 HD
ATOM      5  H   UNK     1      36.581 -22.033 -11.007  0.00  0.00    -0.088 HD
ENDBRANCH   1   2
BRANCH   1   7
ATOM      6  O   UNK     1      35.896 -24.323  -9.798  0.00  0.00    -0.253 OA
ATOM      7  C   UNK     1      35.856 -24.384 -11.022  0.00  0.00    +0.294 C 
BRANCH   7   8
ATOM      8  O   UNK     1      34.847 -24.991 -11.697  0.00  0.00    -0.482 OA
ATOM      9  H   UNK     1      34.665 -24.750 -12.583  0.00  0.00    +0.295 HD
ENDBRANCH   7   8
ENDBRANCH   1   7
BRANCH   1  10
ATOM     10  C   UNK     1      38.129 -24.783 -12.060  0.00  0.00    +0.047 C 
BRANCH  10  11
ATOM     11  S   UNK     1      38.546 -25.099 -13.805  0.00  0.00    -0.134 S 
BRANCH  11  12
ATOM     12  C   UNK     1      37.569 -26.601 -14.034  0.00  0.00    +0.122 C 
BRANCH  12  14
ATOM     13  O   UNK     1      36.618 -27.258 -16.168  0.00  0.00    -0.295 OA
ATOM     14  C   UNK     1      36.620 -26.486 -15.210  0.00  0.00    +0.162 C 
ATOM     15  C   UNK     1      35.641 -25.340 -15.149  0.00  0.00    +0.073 C 
ENDBRANCH  12  14
ENDBRANCH  11  12
ENDBRANCH  10  11
ENDBRANCH   1  10
TORSDOF 7
ENDMDL
MODEL 4
REMARK VINA RESULT:      -5.5      2.168      2.472
REMARK  Name = 17753922
REMARK  7 active torsions:
REMARK  status: ('A' for Active; 'I' for Inactive)
REMARK    1  A    between atoms: C_1  and  N_2
REMARK    2  A    between atoms: C_1  and  C_7
REMARK    3  A    between atoms: C_1  and  C_10
REMARK    4  A    between atoms: C_7  and  O_8
REMARK    5  A    between atoms: C_10  and  S_11
REMARK    6  A    between atoms: S_11  and  C_12
REMARK    7  A    between atoms: C_12  and  C_14
REMARK                            x       y       z     vdW  Elec       q    Type
REMARK                         _______ _______ _______ _____ _____    ______ ____
ROOT
ATOM      1  C   UNK     1      37.066 -25.173 -14.668  0.00  0.00    +0.047 C 
ENDROOT
BRANCH   1   2
ATOM      2  N   UNK     1      37.892 -24.245 -15.444  0.00  0.00    +0.389 N 
ATOM      3  H   UNK     1      38.748 -24.041 -14.930  0.00  0.00    -0.088 HD
ATOM      4  H   UNK     1      37.375 -23.380 -15.601  0.00  0.00    -0.088 HD
ATOM      5  H   UNK     1      38.126 -24.669 -16.342  0.00  0.00    -0.088 HD
ENDBRANCH   1   2
BRANCH   1   7
ATOM      6  O   UNK     1      38.310 -27.246 -14.585  0.00  0.00    -0.253 OA
ATOM      7  C   UNK     1      37.423 -26.581 -15.108  0.00  0.00    +0.294 C 
BRANCH   7   8
ATOM      8  O   UNK     1      36.692 -27.026 -16.162  0.00  0.00    -0.482 OA
ATOM      9  H   UNK     1      36.735 -26.579 -16.984  0.00  0.00    +0.295 HD
ENDBRANCH   7   8
ENDBRANCH   1   7
BRANCH   1  10
ATOM     10  C   UNK     1      35.585 -24.857 -14.880  0.00  0.00    +0.047 C 
BRANCH  10  11
ATOM     11  S   UNK     1      34.798 -24.232 -13.361  0.00  0.00    -0.134 S 
BRANCH  11  12
ATOM     12  C   UNK     1      35.931 -24.971 -12.163  0.00  0.00    +0.122 C 
BRANCH  12  14
ATOM     13  O   UNK     1      36.192 -23.987  -9.960  0.00  0.00    -0.295 OA
ATOM     14  C   UNK     1      36.442 -23.953 -11.164  0.00  0.00    +0.162 C 
ATOM     15  C   UNK     1      37.305 -22.855 -11.734  0.00  0.00    +0.073 C 
ENDBRANCH  12  14
ENDBRANCH  11  12
ENDBRANCH  10  11
ENDBRANCH   1  10
TORSDOF 7
ENDMDL
MODEL 5
REMARK VINA RESULT:      -5.4      2.315      2.728
REMARK  Name = 17753922
REMARK  7 active torsions:
REMARK  status: ('A' for Active; 'I' for Inactive)
REMARK    1  A    between atoms: C_1  and  N_2
REMARK    2  A    between atoms: C_1  and  C_7
REMARK    3  A    between atoms: C_1  and  C_10
REMARK    4  A    between atoms: C_7  and  O_8
REMARK    5  A    between atoms: C_10  and  S_11
REMARK    6  A    between atoms: S_11  and  C_12
REMARK    7  A    between atoms: C_12  and  C_14
REMARK                            x       y       z     vdW  Elec       q    Type
REMARK                         _______ _______ _______ _____ _____    ______ ____
ROOT
ATOM      1  C   UNK     1      39.025 -25.996 -14.061  0.00  0.00    +0.047 C 
ENDROOT
BRANCH   1   2
ATOM      2  N   UNK     1      38.749 -25.099 -12.936  0.00  0.00    +0.389 N 
ATOM      3  H   UNK     1      38.673 -24.141 -13.275  0.00  0.00    -0.088 HD
ATOM      4  H   UNK     1      39.508 -25.161 -12.257  0.00  0.00    -0.088 HD
ATOM      5  H   UNK     1      37.873 -25.374 -12.491  0.00  0.00    -0.088 HD
ENDBRANCH   1   2
BRANCH   1   7
ATOM      6  O   UNK     1      40.950 -24.562 -14.364  0.00  0.00    -0.253 OA
ATOM      7  C   UNK     1      40.207 -25.423 -14.822  0.00  0.00    +0.294 C 
BRANCH   7   8
ATOM      8  O   UNK     1      40.347 -25.926 -16.074  0.00  0.00    -0.482 OA
ATOM      9  H   UNK     1      39.624 -26.349 -16.493  0.00  0.00    +0.295 HD
ENDBRANCH   7   8
ENDBRANCH   1   7
BRANCH   1  10
ATOM     10  C   UNK     1      37.780 -26.130 -14.939  0.00  0.00    +0.047 C 
BRANCH  10  11
ATOM     11  S   UNK     1      36.335 -25.300 -14.203  0.00  0.00    -0.134 S 
BRANCH  11  12
ATOM     12  C   UNK     1      36.093 -24.035 -15.470  0.00  0.00    +0.122 C 
BRANCH  12  14
ATOM     13  O   UNK     1      37.742 -22.681 -14.312  0.00  0.00    -0.295 OA
ATOM     14  C   UNK     1      37.079 -22.893 -15.326  0.00  0.00    +0.162 C 
ATOM     15  C   UNK     1      37.215 -21.994 -16.530  0.00  0.00    +0.073 C 
ENDBRANCH  12  14
ENDBRANCH  11  12
ENDBRANCH  10  11
ENDBRANCH   1  10
TORSDOF 7
ENDMDL
MODEL 6
REMARK VINA RESULT:      -5.4      2.498      4.754
REMARK  Name = 17753922
REMARK  7 active torsions:
REMARK  status: ('A' for Active; 'I' for Inactive)
REMARK    1  A    between atoms: C_1  and  N_2
REMARK    2  A    between atoms: C_1  and  C_7
REMARK    3  A    between atoms: C_1  and  C_10
REMARK    4  A    between atoms: C_7  and  O_8
REMARK    5  A    between atoms: C_10  and  S_11
REMARK    6  A    between atoms: S_11  and  C_12
REMARK    7  A    between atoms: C_12  and  C_14
REMARK                            x       y       z     vdW  Elec       q    Type
REMARK                         _______ _______ _______ _____ _____    ______ ____
ROOT
ATOM      1  C   UNK     1      35.759 -24.227 -12.856  0.00  0.00    +0.047 C 
ENDROOT
BRANCH   1   2
ATOM      2  N   UNK     1      34.434 -23.603 -12.831  0.00  0.00    +0.389 N 
ATOM      3  H   UNK     1      33.728 -24.311 -12.636  0.00  0.00    -0.088 HD
ATOM      4  H   UNK     1      34.244 -23.172 -13.736  0.00  0.00    -0.088 HD
ATOM      5  H   UNK     1      34.410 -22.888 -12.103  0.00  0.00    -0.088 HD
ENDBRANCH   1   2
BRANCH   1   7
ATOM      6  O   UNK     1      35.271 -25.070 -10.641  0.00  0.00    -0.253 OA
ATOM      7  C   UNK     1      36.099 -24.634 -11.434  0.00  0.00    +0.294 C 
BRANCH   7   8
ATOM      8  O   UNK     1      37.401 -24.438 -11.105  0.00  0.00    -0.482 OA
ATOM      9  H   UNK     1      37.644 -23.712 -10.566  0.00  0.00    +0.295 HD
ENDBRANCH   7   8
ENDBRANCH   1   7
BRANCH   1  10
ATOM     10  C   UNK     1      36.784 -23.254 -13.441  0.00  0.00    +0.047 C 
BRANCH  10  11
ATOM     11  S   UNK     1      37.233 -23.688 -15.152  0.00  0.00    -0.134 S 
BRANCH  11  12
ATOM     12  C   UNK     1      37.560 -25.446 -14.893  0.00  0.00    +0.122 C 
BRANCH  12  14
ATOM     13  O   UNK     1      38.991 -26.057 -13.030  0.00  0.00    -0.295 OA
ATOM     14  C   UNK     1      38.885 -25.680 -14.196  0.00  0.00    +0.162 C 
ATOM     15  C   UNK     1      40.116 -25.420 -15.029  0.00  0.00    +0.073 C 
ENDBRANCH  12  14
ENDBRANCH  11  12
ENDBRANCH  10  11
ENDBRANCH   1  10
TORSDOF 7
ENDMDL
MODEL 7
REMARK VINA RESULT:      -5.3      2.595      4.596
REMARK  Name = 17753922
REMARK  7 active torsions:
REMARK  status: ('A' for Active; 'I' for Inactive)
REMARK    1  A    between atoms: C_1  and  N_2
REMARK    2  A    between atoms: C_1  and  C_7
REMARK    3  A    between atoms: C_1  and  C_10
REMARK    4  A    between atoms: C_7  and  O_8
REMARK    5  A    between atoms: C_10  and  S_11
REMARK    6  A    between atoms: S_11  and  C_12
REMARK    7  A    between atoms: C_12  and  C_14
REMARK                            x       y       z     vdW  Elec       q    Type
REMARK                         _______ _______ _______ _____ _____    ______ ____
ROOT
ATOM      1  C   UNK     1      37.028 -24.498 -12.167  0.00  0.00    +0.047 C 
ENDROOT
BRANCH   1   2
ATOM      2  N   UNK     1      38.171 -23.826 -11.544  0.00  0.00    +0.389 N 
ATOM      3  H   UNK     1      38.178 -22.844 -11.817  0.00  0.00    -0.088 HD
ATOM      4  H   UNK     1      39.036 -24.271 -11.851  0.00  0.00    -0.088 HD
ATOM      5  H   UNK     1      38.094 -23.898 -10.529  0.00  0.00    -0.088 HD
ENDBRANCH   1   2
BRANCH   1   7
ATOM      6  O   UNK     1      36.054 -24.220  -9.971  0.00  0.00    -0.253 OA
ATOM      7  C   UNK     1      35.904 -24.528 -11.148  0.00  0.00    +0.294 C 
BRANCH   7   8
ATOM      8  O   UNK     1      34.721 -24.962 -11.651  0.00  0.00    -0.482 OA
ATOM      9  H   UNK     1      34.481 -24.752 -12.532  0.00  0.00    +0.295 HD
ENDBRANCH   7   8
ENDBRANCH   1   7
BRANCH   1  10
ATOM     10  C   UNK     1      37.433 -25.900 -12.625  0.00  0.00    +0.047 C 
BRANCH  10  11
ATOM     11  S   UNK     1      37.247 -26.108 -14.425  0.00  0.00    -0.134 S 
BRANCH  11  12
ATOM     12  C   UNK     1      36.659 -24.445 -14.816  0.00  0.00    +0.122 C 
BRANCH  12  14
ATOM     13  O   UNK     1      38.952 -23.832 -15.322  0.00  0.00    -0.295 OA
ATOM     14  C   UNK     1      37.751 -23.584 -15.418  0.00  0.00    +0.162 C 
ATOM     15  C   UNK     1      37.281 -22.364 -16.170  0.00  0.00    +0.073 C 
ENDBRANCH  12  14
ENDBRANCH  11  12
ENDBRANCH  10  11
ENDBRANCH   1  10
TORSDOF 7
ENDMDL
MODEL 8
REMARK VINA RESULT:      -5.2      2.521      2.866
REMARK  Name = 17753922
REMARK  7 active torsions:
REMARK  status: ('A' for Active; 'I' for Inactive)
REMARK    1  A    between atoms: C_1  and  N_2
REMARK    2  A    between atoms: C_1  and  C_7
REMARK    3  A    between atoms: C_1  and  C_10
REMARK    4  A    between atoms: C_7  and  O_8
REMARK    5  A    between atoms: C_10  and  S_11
REMARK    6  A    between atoms: S_11  and  C_12
REMARK    7  A    between atoms: C_12  and  C_14
REMARK                            x       y       z     vdW  Elec       q    Type
REMARK                         _______ _______ _______ _____ _____    ______ ____
ROOT
ATOM      1  C   UNK     1      38.836 -25.527 -14.348  0.00  0.00    +0.047 C 
ENDROOT
BRANCH   1   2
ATOM      2  N   UNK     1      38.251 -26.868 -14.415  0.00  0.00    +0.389 N 
ATOM      3  H   UNK     1      38.926 -27.551 -14.073  0.00  0.00    -0.088 HD
ATOM      4  H   UNK     1      38.007 -27.085 -15.382  0.00  0.00    -0.088 HD
ATOM      5  H   UNK     1      37.411 -26.900 -13.837  0.00  0.00    -0.088 HD
ENDBRANCH   1   2
BRANCH   1   7
ATOM      6  O   UNK     1      40.898 -26.757 -14.643  0.00  0.00    -0.253 OA
ATOM      7  C   UNK     1      40.341 -25.679 -14.470  0.00  0.00    +0.294 C 
BRANCH   7   8
ATOM      8  O   UNK     1      41.021 -24.512 -14.336  0.00  0.00    -0.482 OA
ATOM      9  H   UNK     1      41.178 -24.157 -13.483  0.00  0.00    +0.295 HD
ENDBRANCH   7   8
ENDBRANCH   1   7
BRANCH   1  10
ATOM     10  C   UNK     1      38.426 -24.843 -13.043  0.00  0.00    +0.047 C 
BRANCH  10  11
ATOM     11  S   UNK     1      36.633 -24.963 -12.746  0.00  0.00    -0.134 S 
BRANCH  11  12
ATOM     12  C   UNK     1      36.092 -23.714 -13.933  0.00  0.00    +0.122 C 
BRANCH  12  14
ATOM     13  O   UNK     1      35.648 -25.473 -15.546  0.00  0.00    -0.295 OA
ATOM     14  C   UNK     1      35.421 -24.333 -15.143  0.00  0.00    +0.162 C 
ATOM     15  C   UNK     1      34.424 -23.455 -15.856  0.00  0.00    +0.073 C 
ENDBRANCH  12  14
ENDBRANCH  11  12
ENDBRANCH  10  11
ENDBRANCH   1  10
TORSDOF 7
ENDMDL
MODEL 9
REMARK VINA RESULT:      -5.2      2.896      3.775
REMARK  Name = 17753922
REMARK  7 active torsions:
REMARK  status: ('A' for Active; 'I' for Inactive)
REMARK    1  A    between atoms: C_1  and  N_2
REMARK    2  A    between atoms: C_1  and  C_7
REMARK    3  A    between atoms: C_1  and  C_10
REMARK    4  A    between atoms: C_7  and  O_8
REMARK    5  A    between atoms: C_10  and  S_11
REMARK    6  A    between atoms: S_11  and  C_12
REMARK    7  A    between atoms: C_12  and  C_14
REMARK                            x       y       z     vdW  Elec       q    Type
REMARK                         _______ _______ _______ _____ _____    ______ ____
ROOT
ATOM      1  C   UNK     1      38.067 -25.240 -12.896  0.00  0.00    +0.047 C 
ENDROOT
BRANCH   1   2
ATOM      2  N   UNK     1      37.052 -26.256 -12.607  0.00  0.00    +0.389 N 
ATOM      3  H   UNK     1      36.131 -25.821 -12.592  0.00  0.00    -0.088 HD
ATOM      4  H   UNK     1      37.243 -26.679 -11.699  0.00  0.00    -0.088 HD
ATOM      5  H   UNK     1      37.077 -26.976 -13.329  0.00  0.00    -0.088 HD
ENDBRANCH   1   2
BRANCH   1   7
ATOM      6  O   UNK     1      38.758 -23.240 -11.725  0.00  0.00    -0.253 OA
ATOM      7  C   UNK     1      37.985 -24.188 -11.806  0.00  0.00    +0.294 C 
BRANCH   7   8
ATOM      8  O   UNK     1      36.995 -24.410 -10.905  0.00  0.00    -0.482 OA
ATOM      9  H   UNK     1      36.562 -23.687 -10.496  0.00  0.00    +0.295 HD
ENDBRANCH   7   8
ENDBRANCH   1   7
BRANCH   1  10
ATOM     10  C   UNK     1      37.835 -24.652 -14.289  0.00  0.00    +0.047 C 
BRANCH  10  11
ATOM     11  S   UNK     1      36.209 -25.122 -14.963  0.00  0.00    -0.134 S 
BRANCH  11  12
ATOM     12  C   UNK     1      35.264 -23.705 -14.362  0.00  0.00    +0.122 C 
BRANCH  12  14
ATOM     13  O   UNK     1      34.464 -24.513 -12.217  0.00  0.00    -0.295 OA
ATOM     14  C   UNK     1      34.210 -24.113 -13.352  0.00  0.00    +0.162 C 
ATOM     15  C   UNK     1      32.780 -24.003 -13.821  0.00  0.00    +0.073 C 
ENDBRANCH  12  14
ENDBRANCH  11  12
ENDBRANCH  10  11
ENDBRANCH   1  10
TORSDOF 7
ENDMDL
