MODEL 1
REMARK VINA RESULT:      -9.2      0.000      0.000
REMARK  Name = 446541
REMARK  8 active torsions:
REMARK  status: ('A' for Active; 'I' for Inactive)
REMARK    1  A    between atoms: C_4  and  C_16
REMARK    2  A    between atoms: C_7  and  O_12
REMARK    3  A    between atoms: C_8  and  O_14
REMARK    4  A    between atoms: C_16  and  C_17
REMARK    5  A    between atoms: C_18  and  C_20
REMARK    6  A    between atoms: C_20  and  C_21
REMARK    7  A    between atoms: C_21  and  C_23
REMARK    8  A    between atoms: C_23  and  O_24
REMARK                            x       y       z     vdW  Elec       q    Type
REMARK                         _______ _______ _______ _____ _____    ______ ____
ROOT
ATOM      1  O   UNL     1      32.084 -12.788 -22.494  0.00  0.00    -0.440 OA
ATOM      2  O   UNL     1      32.462 -13.320 -20.277  0.00  0.00    -0.245 OA
ATOM      3  C   UNL     1      33.201 -14.530 -23.455  0.00  0.00    +0.029 A 
ATOM      4  C   UNL     1      34.578 -16.621 -22.302  0.00  0.00    +0.050 A 
ATOM      5  C   UNL     1      33.299 -14.648 -22.083  0.00  0.00    +0.108 A 
ATOM      6  C   UNL     1      33.796 -15.463 -24.284  0.00  0.00    +0.012 A 
ATOM      7  C   UNL     1      34.492 -16.523 -23.694  0.00  0.00    +0.134 A 
ATOM      8  C   UNL     1      33.981 -15.683 -21.470  0.00  0.00    +0.139 A 
ATOM      9  C   UNL     1      32.417 -13.331 -23.797  0.00  0.00    +0.235 C 
ATOM     10  C   UNL     1      32.589 -13.540 -21.465  0.00  0.00    +0.344 C 
ATOM     11  C   UNL     1      33.690 -15.341 -25.766  0.00  0.00    +0.034 C 
ENDROOT
BRANCH   7  12
ATOM     12  O   UNL     1      35.089 -17.462 -24.486  0.00  0.00    -0.472 OA
ATOM     13  C   UNL     1      34.299 -18.589 -24.856  0.00  0.00    +0.252 C 
ENDBRANCH   7  12
BRANCH   8  14
ATOM     14  O   UNL     1      34.060 -15.774 -20.118  0.00  0.00    -0.506 OA
ATOM     15  H   UNL     1      34.480 -15.096 -19.626  0.00  0.00    +0.292 HD
ENDBRANCH   8  14
BRANCH   4  16
ATOM     16  C   UNL     1      35.335 -17.775 -21.688  0.00  0.00    +0.058 C 
BRANCH  16  17
ATOM     17  C   UNL     1      34.418 -18.814 -21.106  0.00  0.00    -0.030 C 
ATOM     18  C   UNL     1      34.755 -19.975 -20.511  0.00  0.00    -0.047 C 
ATOM     19  C   UNL     1      36.204 -20.359 -20.369  0.00  0.00    +0.026 C 
BRANCH  18  20
ATOM     20  C   UNL     1      33.767 -20.986 -19.973  0.00  0.00    +0.033 C 
BRANCH  20  21
ATOM     21  C   UNL     1      34.460 -22.149 -19.261  0.00  0.00    +0.114 C 
BRANCH  21  23
ATOM     22  O   UNL     1      33.867 -23.729 -17.507  0.00  0.00    -0.250 OA
ATOM     23  C   UNL     1      33.548 -22.822 -18.261  0.00  0.00    +0.314 C 
BRANCH  23  24
ATOM     24  O   UNL     1      32.298 -22.289 -18.292  0.00  0.00    -0.480 OA
ATOM     25  H   UNL     1      31.575 -22.808 -18.583  0.00  0.00    +0.295 HD
ENDBRANCH  23  24
ENDBRANCH  21  23
ENDBRANCH  20  21
ENDBRANCH  18  20
ENDBRANCH  16  17
ENDBRANCH   4  16
TORSDOF 8
ENDMDL
MODEL 2
REMARK VINA RESULT:      -9.0      6.167      9.276
REMARK  Name = 446541
REMARK  8 active torsions:
REMARK  status: ('A' for Active; 'I' for Inactive)
REMARK    1  A    between atoms: C_4  and  C_16
REMARK    2  A    between atoms: C_7  and  O_12
REMARK    3  A    between atoms: C_8  and  O_14
REMARK    4  A    between atoms: C_16  and  C_17
REMARK    5  A    between atoms: C_18  and  C_20
REMARK    6  A    between atoms: C_20  and  C_21
REMARK    7  A    between atoms: C_21  and  C_23
REMARK    8  A    between atoms: C_23  and  O_24
REMARK                            x       y       z     vdW  Elec       q    Type
REMARK                         _______ _______ _______ _____ _____    ______ ____
ROOT
ATOM      1  O   UNL     1      37.538 -22.567 -14.768  0.00  0.00    -0.440 OA
ATOM      2  O   UNL     1      36.069 -23.645 -13.347  0.00  0.00    -0.245 OA
ATOM      3  C   UNL     1      36.192 -22.430 -16.606  0.00  0.00    +0.029 A 
ATOM      4  C   UNL     1      33.604 -23.296 -16.990  0.00  0.00    +0.050 A 
ATOM      5  C   UNL     1      35.495 -23.063 -15.596  0.00  0.00    +0.108 A 
ATOM      6  C   UNL     1      35.603 -22.217 -17.838  0.00  0.00    +0.012 A 
ATOM      7  C   UNL     1      34.289 -22.657 -18.028  0.00  0.00    +0.134 A 
ATOM      8  C   UNL     1      34.197 -23.510 -15.752  0.00  0.00    +0.139 A 
ATOM      9  C   UNL     1      37.542 -22.076 -16.133  0.00  0.00    +0.235 C 
ATOM     10  C   UNL     1      36.348 -23.153 -14.422  0.00  0.00    +0.344 C 
ATOM     11  C   UNL     1      36.351 -21.532 -18.930  0.00  0.00    +0.034 C 
ENDROOT
BRANCH   7  12
ATOM     12  O   UNL     1      33.679 -22.460 -19.234  0.00  0.00    -0.472 OA
ATOM     13  C   UNL     1      33.079 -21.186 -19.452  0.00  0.00    +0.252 C 
ENDBRANCH   7  12
BRANCH   8  14
ATOM     14  O   UNL     1      33.535 -24.129 -14.742  0.00  0.00    -0.506 OA
ATOM     15  H   UNL     1      32.917 -23.651 -14.224  0.00  0.00    +0.292 HD
ENDBRANCH   8  14
BRANCH   4  16
ATOM     16  C   UNL     1      32.186 -23.763 -17.219  0.00  0.00    +0.058 C 
BRANCH  16  17
ATOM     17  C   UNL     1      31.174 -22.838 -16.600  0.00  0.00    -0.030 C 
ATOM     18  C   UNL     1      30.175 -23.153 -15.754  0.00  0.00    -0.047 C 
ATOM     19  C   UNL     1      29.971 -24.582 -15.322  0.00  0.00    +0.026 C 
BRANCH  18  20
ATOM     20  C   UNL     1      29.177 -22.165 -15.194  0.00  0.00    +0.033 C 
BRANCH  20  21
ATOM     21  C   UNL     1      27.734 -22.550 -15.523  0.00  0.00    +0.114 C 
BRANCH  21  23
ATOM     22  O   UNL     1      27.525 -23.410 -17.791  0.00  0.00    -0.250 OA
ATOM     23  C   UNL     1      27.455 -22.475 -17.007  0.00  0.00    +0.314 C 
BRANCH  23  24
ATOM     24  O   UNL     1      27.104 -21.217 -17.383  0.00  0.00    -0.480 OA
ATOM     25  H   UNL     1      27.472 -20.841 -18.159  0.00  0.00    +0.295 HD
ENDBRANCH  23  24
ENDBRANCH  21  23
ENDBRANCH  20  21
ENDBRANCH  18  20
ENDBRANCH  16  17
ENDBRANCH   4  16
TORSDOF 8
ENDMDL
MODEL 3
REMARK VINA RESULT:      -9.0      8.201     11.335
REMARK  Name = 446541
REMARK  8 active torsions:
REMARK  status: ('A' for Active; 'I' for Inactive)
REMARK    1  A    between atoms: C_4  and  C_16
REMARK    2  A    between atoms: C_7  and  O_12
REMARK    3  A    between atoms: C_8  and  O_14
REMARK    4  A    between atoms: C_16  and  C_17
REMARK    5  A    between atoms: C_18  and  C_20
REMARK    6  A    between atoms: C_20  and  C_21
REMARK    7  A    between atoms: C_21  and  C_23
REMARK    8  A    between atoms: C_23  and  O_24
REMARK                            x       y       z     vdW  Elec       q    Type
REMARK                         _______ _______ _______ _____ _____    ______ ____
ROOT
ATOM      1  O   UNL     1      37.424 -25.491 -11.397  0.00  0.00    -0.440 OA
ATOM      2  O   UNL     1      35.296 -25.052 -10.609  0.00  0.00    -0.245 OA
ATOM      3  C   UNL     1      37.201 -24.599 -13.486  0.00  0.00    +0.029 A 
ATOM      4  C   UNL     1      35.041 -23.376 -14.682  0.00  0.00    +0.050 A 
ATOM      5  C   UNL     1      36.007 -24.444 -12.812  0.00  0.00    +0.108 A 
ATOM      6  C   UNL     1      37.339 -24.141 -14.783  0.00  0.00    +0.012 A 
ATOM      7  C   UNL     1      36.241 -23.520 -15.386  0.00  0.00    +0.134 A 
ATOM      8  C   UNL     1      34.903 -23.835 -13.380  0.00  0.00    +0.139 A 
ATOM      9  C   UNL     1      38.178 -25.279 -12.618  0.00  0.00    +0.235 C 
ATOM     10  C   UNL     1      36.143 -25.011 -11.480  0.00  0.00    +0.344 C 
ATOM     11  C   UNL     1      38.628 -24.305 -15.514  0.00  0.00    +0.034 C 
ENDROOT
BRANCH   7  12
ATOM     12  O   UNL     1      36.346 -23.057 -16.667  0.00  0.00    -0.472 OA
ATOM     13  C   UNL     1      36.899 -21.755 -16.836  0.00  0.00    +0.252 C 
ENDBRANCH   7  12
BRANCH   8  14
ATOM     14  O   UNL     1      33.741 -23.696 -12.693  0.00  0.00    -0.506 OA
ATOM     15  H   UNL     1      33.739 -23.275 -11.856  0.00  0.00    +0.292 HD
ENDBRANCH   8  14
BRANCH   4  16
ATOM     16  C   UNL     1      33.868 -22.701 -15.355  0.00  0.00    +0.058 C 
BRANCH  16  17
ATOM     17  C   UNL     1      32.778 -23.674 -15.709  0.00  0.00    -0.030 C 
ATOM     18  C   UNL     1      31.491 -23.655 -15.311  0.00  0.00    -0.047 C 
ATOM     19  C   UNL     1      30.998 -22.564 -14.396  0.00  0.00    +0.026 C 
BRANCH  18  20
ATOM     20  C   UNL     1      30.456 -24.690 -15.690  0.00  0.00    +0.033 C 
BRANCH  20  21
ATOM     21  C   UNL     1      29.028 -24.171 -15.515  0.00  0.00    +0.114 C 
BRANCH  21  23
ATOM     22  O   UNL     1      28.748 -22.355 -17.111  0.00  0.00    -0.250 OA
ATOM     23  C   UNL     1      28.512 -23.505 -16.769  0.00  0.00    +0.314 C 
BRANCH  23  24
ATOM     24  O   UNL     1      27.736 -24.350 -17.497  0.00  0.00    -0.480 OA
ATOM     25  H   UNL     1      27.085 -24.006 -18.077  0.00  0.00    +0.295 HD
ENDBRANCH  23  24
ENDBRANCH  21  23
ENDBRANCH  20  21
ENDBRANCH  18  20
ENDBRANCH  16  17
ENDBRANCH   4  16
TORSDOF 8
ENDMDL
MODEL 4
REMARK VINA RESULT:      -8.9      6.253      9.160
REMARK  Name = 446541
REMARK  8 active torsions:
REMARK  status: ('A' for Active; 'I' for Inactive)
REMARK    1  A    between atoms: C_4  and  C_16
REMARK    2  A    between atoms: C_7  and  O_12
REMARK    3  A    between atoms: C_8  and  O_14
REMARK    4  A    between atoms: C_16  and  C_17
REMARK    5  A    between atoms: C_18  and  C_20
REMARK    6  A    between atoms: C_20  and  C_21
REMARK    7  A    between atoms: C_21  and  C_23
REMARK    8  A    between atoms: C_23  and  O_24
REMARK                            x       y       z     vdW  Elec       q    Type
REMARK                         _______ _______ _______ _____ _____    ______ ____
ROOT
ATOM      1  O   UNL     1      35.388 -21.493 -19.936  0.00  0.00    -0.440 OA
ATOM      2  O   UNL     1      33.133 -21.914 -20.209  0.00  0.00    -0.245 OA
ATOM      3  C   UNL     1      35.606 -22.203 -17.778  0.00  0.00    +0.029 A 
ATOM      4  C   UNL     1      33.732 -23.242 -16.045  0.00  0.00    +0.050 A 
ATOM      5  C   UNL     1      34.291 -22.367 -18.165  0.00  0.00    +0.108 A 
ATOM      6  C   UNL     1      36.012 -22.559 -16.506  0.00  0.00    +0.012 A 
ATOM      7  C   UNL     1      35.059 -23.086 -15.629  0.00  0.00    +0.134 A 
ATOM      8  C   UNL     1      33.324 -22.885 -17.323  0.00  0.00    +0.139 A 
ATOM      9  C   UNL     1      36.385 -21.633 -18.892  0.00  0.00    +0.235 C 
ATOM     10  C   UNL     1      34.146 -21.916 -19.539  0.00  0.00    +0.344 C 
ATOM     11  C   UNL     1      37.432 -22.385 -16.085  0.00  0.00    +0.034 C 
ENDROOT
BRANCH   7  12
ATOM     12  O   UNL     1      35.430 -23.448 -14.366  0.00  0.00    -0.472 OA
ATOM     13  C   UNL     1      36.024 -24.733 -14.212  0.00  0.00    +0.252 C 
ENDBRANCH   7  12
BRANCH   8  14
ATOM     14  O   UNL     1      32.039 -23.036 -17.730  0.00  0.00    -0.506 OA
ATOM     15  H   UNL     1      31.401 -23.396 -17.145  0.00  0.00    +0.292 HD
ENDBRANCH   8  14
BRANCH   4  16
ATOM     16  C   UNL     1      32.720 -23.814 -15.080  0.00  0.00    +0.058 C 
BRANCH  16  17
ATOM     17  C   UNL     1      31.495 -22.951 -14.960  0.00  0.00    -0.030 C 
ATOM     18  C   UNL     1      30.209 -23.311 -15.132  0.00  0.00    -0.047 C 
ATOM     19  C   UNL     1      29.863 -24.733 -15.492  0.00  0.00    +0.026 C 
BRANCH  18  20
ATOM     20  C   UNL     1      29.029 -22.373 -15.020  0.00  0.00    +0.033 C 
BRANCH  20  21
ATOM     21  C   UNL     1      27.759 -22.964 -15.635  0.00  0.00    +0.114 C 
BRANCH  21  23
ATOM     22  O   UNL     1      27.102 -21.258 -17.244  0.00  0.00    -0.250 OA
ATOM     23  C   UNL     1      27.481 -22.397 -17.009  0.00  0.00    +0.314 C 
BRANCH  23  24
ATOM     24  O   UNL     1      27.709 -23.318 -17.982  0.00  0.00    -0.480 OA
ATOM     25  H   UNL     1      28.272 -23.109 -18.701  0.00  0.00    +0.295 HD
ENDBRANCH  23  24
ENDBRANCH  21  23
ENDBRANCH  20  21
ENDBRANCH  18  20
ENDBRANCH  16  17
ENDBRANCH   4  16
TORSDOF 8
ENDMDL
MODEL 5
REMARK VINA RESULT:      -8.8      1.629      3.145
REMARK  Name = 446541
REMARK  8 active torsions:
REMARK  status: ('A' for Active; 'I' for Inactive)
REMARK    1  A    between atoms: C_4  and  C_16
REMARK    2  A    between atoms: C_7  and  O_12
REMARK    3  A    between atoms: C_8  and  O_14
REMARK    4  A    between atoms: C_16  and  C_17
REMARK    5  A    between atoms: C_18  and  C_20
REMARK    6  A    between atoms: C_20  and  C_21
REMARK    7  A    between atoms: C_21  and  C_23
REMARK    8  A    between atoms: C_23  and  O_24
REMARK                            x       y       z     vdW  Elec       q    Type
REMARK                         _______ _______ _______ _____ _____    ______ ____
ROOT
ATOM      1  O   UNL     1      32.857 -13.529 -25.919  0.00  0.00    -0.440 OA
ATOM      2  O   UNL     1      33.042 -15.378 -27.293  0.00  0.00    -0.245 OA
ATOM      3  C   UNL     1      33.783 -14.416 -24.032  0.00  0.00    +0.029 A 
ATOM      4  C   UNL     1      34.804 -16.931 -23.558  0.00  0.00    +0.050 A 
ATOM      5  C   UNL     1      33.790 -15.380 -25.019  0.00  0.00    +0.108 A 
ATOM      6  C   UNL     1      34.292 -14.694 -22.777  0.00  0.00    +0.012 A 
ATOM      7  C   UNL     1      34.810 -15.972 -22.541  0.00  0.00    +0.134 A 
ATOM      8  C   UNL     1      34.293 -16.652 -24.819  0.00  0.00    +0.139 A 
ATOM      9  C   UNL     1      33.185 -13.174 -24.552  0.00  0.00    +0.235 C 
ATOM     10  C   UNL     1      33.200 -14.820 -26.225  0.00  0.00    +0.344 C 
ATOM     11  C   UNL     1      34.290 -13.655 -21.708  0.00  0.00    +0.034 C 
ENDROOT
BRANCH   7  12
ATOM     12  O   UNL     1      35.321 -16.277 -21.312  0.00  0.00    -0.472 OA
ATOM     13  C   UNL     1      34.445 -16.135 -20.197  0.00  0.00    +0.252 C 
ENDBRANCH   7  12
BRANCH   8  14
ATOM     14  O   UNL     1      34.287 -17.580 -25.808  0.00  0.00    -0.506 OA
ATOM     15  H   UNL     1      34.941 -18.250 -25.826  0.00  0.00    +0.292 HD
ENDBRANCH   8  14
BRANCH   4  16
ATOM     16  C   UNL     1      35.370 -18.305 -23.280  0.00  0.00    +0.058 C 
BRANCH  16  17
ATOM     17  C   UNL     1      34.455 -19.134 -22.421  0.00  0.00    -0.030 C 
ATOM     18  C   UNL     1      34.741 -19.737 -21.251  0.00  0.00    -0.047 C 
ATOM     19  C   UNL     1      36.121 -19.620 -20.657  0.00  0.00    +0.026 C 
BRANCH  18  20
ATOM     20  C   UNL     1      33.771 -20.581 -20.456  0.00  0.00    +0.033 C 
BRANCH  20  21
ATOM     21  C   UNL     1      34.473 -21.417 -19.385  0.00  0.00    +0.114 C 
BRANCH  21  23
ATOM     22  O   UNL     1      34.001 -23.805 -19.453  0.00  0.00    -0.250 OA
ATOM     23  C   UNL     1      33.709 -22.682 -19.067  0.00  0.00    +0.314 C 
BRANCH  23  24
ATOM     24  O   UNL     1      32.632 -22.426 -18.277  0.00  0.00    -0.480 OA
ATOM     25  H   UNL     1      31.915 -21.925 -18.613  0.00  0.00    +0.295 HD
ENDBRANCH  23  24
ENDBRANCH  21  23
ENDBRANCH  20  21
ENDBRANCH  18  20
ENDBRANCH  16  17
ENDBRANCH   4  16
TORSDOF 8
ENDMDL
MODEL 6
REMARK VINA RESULT:      -8.8      4.890      8.039
REMARK  Name = 446541
REMARK  8 active torsions:
REMARK  status: ('A' for Active; 'I' for Inactive)
REMARK    1  A    between atoms: C_4  and  C_16
REMARK    2  A    between atoms: C_7  and  O_12
REMARK    3  A    between atoms: C_8  and  O_14
REMARK    4  A    between atoms: C_16  and  C_17
REMARK    5  A    between atoms: C_18  and  C_20
REMARK    6  A    between atoms: C_20  and  C_21
REMARK    7  A    between atoms: C_21  and  C_23
REMARK    8  A    between atoms: C_23  and  O_24
REMARK                            x       y       z     vdW  Elec       q    Type
REMARK                         _______ _______ _______ _____ _____    ______ ____
ROOT
ATOM      1  O   UNL     1      36.380 -19.811 -20.482  0.00  0.00    -0.440 OA
ATOM      2  O   UNL     1      34.283 -20.060 -21.421  0.00  0.00    -0.245 OA
ATOM      3  C   UNL     1      36.132 -21.238 -18.718  0.00  0.00    +0.029 A 
ATOM      4  C   UNL     1      33.977 -22.778 -17.959  0.00  0.00    +0.050 A 
ATOM      5  C   UNL     1      34.958 -21.227 -19.444  0.00  0.00    +0.108 A 
ATOM      6  C   UNL     1      36.252 -22.026 -17.589  0.00  0.00    +0.012 A 
ATOM      7  C   UNL     1      35.156 -22.806 -17.207  0.00  0.00    +0.134 A 
ATOM      8  C   UNL     1      33.857 -21.986 -19.093  0.00  0.00    +0.139 A 
ATOM      9  C   UNL     1      37.111 -20.330 -19.342  0.00  0.00    +0.235 C 
ATOM     10  C   UNL     1      35.110 -20.319 -20.569  0.00  0.00    +0.344 C 
ATOM     11  C   UNL     1      37.519 -22.042 -16.804  0.00  0.00    +0.034 C 
ENDROOT
BRANCH   7  12
ATOM     12  O   UNL     1      35.244 -23.596 -16.097  0.00  0.00    -0.472 OA
ATOM     13  C   UNL     1      34.868 -23.007 -14.856  0.00  0.00    +0.252 C 
ENDBRANCH   7  12
BRANCH   8  14
ATOM     14  O   UNL     1      32.715 -21.957 -19.826  0.00  0.00    -0.506 OA
ATOM     15  H   UNL     1      32.616 -21.331 -20.516  0.00  0.00    +0.292 HD
ENDBRANCH   8  14
BRANCH   4  16
ATOM     16  C   UNL     1      32.806 -23.630 -17.527  0.00  0.00    +0.058 C 
BRANCH  16  17
ATOM     17  C   UNL     1      31.737 -22.825 -16.842  0.00  0.00    -0.030 C 
ATOM     18  C   UNL     1      30.834 -23.250 -15.937  0.00  0.00    -0.047 C 
ATOM     19  C   UNL     1      30.821 -24.692 -15.501  0.00  0.00    +0.026 C 
BRANCH  18  20
ATOM     20  C   UNL     1      29.767 -22.381 -15.311  0.00  0.00    +0.033 C 
BRANCH  20  21
ATOM     21  C   UNL     1      28.365 -22.965 -15.493  0.00  0.00    +0.114 C 
BRANCH  21  23
ATOM     22  O   UNL     1      27.796 -23.715 -17.738  0.00  0.00    -0.250 OA
ATOM     23  C   UNL     1      27.872 -22.815 -16.914  0.00  0.00    +0.314 C 
BRANCH  23  24
ATOM     24  O   UNL     1      27.508 -21.533 -17.180  0.00  0.00    -0.480 OA
ATOM     25  H   UNL     1      27.192 -20.983 -16.491  0.00  0.00    +0.295 HD
ENDBRANCH  23  24
ENDBRANCH  21  23
ENDBRANCH  20  21
ENDBRANCH  18  20
ENDBRANCH  16  17
ENDBRANCH   4  16
TORSDOF 8
ENDMDL
MODEL 7
REMARK VINA RESULT:      -8.7      7.851     10.367
REMARK  Name = 446541
REMARK  8 active torsions:
REMARK  status: ('A' for Active; 'I' for Inactive)
REMARK    1  A    between atoms: C_4  and  C_16
REMARK    2  A    between atoms: C_7  and  O_12
REMARK    3  A    between atoms: C_8  and  O_14
REMARK    4  A    between atoms: C_16  and  C_17
REMARK    5  A    between atoms: C_18  and  C_20
REMARK    6  A    between atoms: C_20  and  C_21
REMARK    7  A    between atoms: C_21  and  C_23
REMARK    8  A    between atoms: C_23  and  O_24
REMARK                            x       y       z     vdW  Elec       q    Type
REMARK                         _______ _______ _______ _____ _____    ______ ____
ROOT
ATOM      1  O   UNL     1      30.346 -23.700 -15.160  0.00  0.00    -0.440 OA
ATOM      2  O   UNL     1      30.913 -23.873 -12.926  0.00  0.00    -0.245 OA
ATOM      3  C   UNL     1      32.437 -23.379 -16.016  0.00  0.00    +0.029 A 
ATOM      4  C   UNL     1      34.881 -23.243 -14.750  0.00  0.00    +0.050 A 
ATOM      5  C   UNL     1      32.538 -23.512 -14.646  0.00  0.00    +0.108 A 
ATOM      6  C   UNL     1      33.566 -23.174 -16.786  0.00  0.00    +0.012 A 
ATOM      7  C   UNL     1      34.805 -23.106 -16.139  0.00  0.00    +0.134 A 
ATOM      8  C   UNL     1      33.746 -23.449 -13.977  0.00  0.00    +0.139 A 
ATOM      9  C   UNL     1      31.025 -23.492 -16.424  0.00  0.00    +0.235 C 
ATOM     10  C   UNL     1      31.208 -23.716 -14.095  0.00  0.00    +0.344 C 
ATOM     11  C   UNL     1      33.462 -23.033 -18.266  0.00  0.00    +0.034 C 
ENDROOT
BRANCH   7  12
ATOM     12  O   UNL     1      35.939 -22.906 -16.873  0.00  0.00    -0.472 OA
ATOM     13  C   UNL     1      36.449 -21.576 -16.920  0.00  0.00    +0.252 C 
ENDBRANCH   7  12
BRANCH   8  14
ATOM     14  O   UNL     1      33.816 -23.583 -12.628  0.00  0.00    -0.506 OA
ATOM     15  H   UNL     1      34.468 -24.137 -12.246  0.00  0.00    +0.292 HD
ENDBRANCH   8  14
BRANCH   4  16
ATOM     16  C   UNL     1      36.230 -23.167 -14.074  0.00  0.00    +0.058 C 
BRANCH  16  17
ATOM     17  C   UNL     1      37.135 -24.298 -14.478  0.00  0.00    -0.030 C 
ATOM     18  C   UNL     1      37.428 -25.412 -13.780  0.00  0.00    -0.047 C 
ATOM     19  C   UNL     1      36.821 -25.634 -12.420  0.00  0.00    +0.026 C 
BRANCH  18  20
ATOM     20  C   UNL     1      38.374 -26.496 -14.246  0.00  0.00    +0.033 C 
BRANCH  20  21
ATOM     21  C   UNL     1      39.829 -26.187 -13.889  0.00  0.00    +0.114 C 
BRANCH  21  23
ATOM     22  O   UNL     1      41.248 -24.415 -14.770  0.00  0.00    -0.250 OA
ATOM     23  C   UNL     1      40.512 -25.372 -14.964  0.00  0.00    +0.314 C 
BRANCH  23  24
ATOM     24  O   UNL     1      40.211 -25.836 -16.205  0.00  0.00    -0.480 OA
ATOM     25  H   UNL     1      39.345 -25.727 -16.549  0.00  0.00    +0.295 HD
ENDBRANCH  23  24
ENDBRANCH  21  23
ENDBRANCH  20  21
ENDBRANCH  18  20
ENDBRANCH  16  17
ENDBRANCH   4  16
TORSDOF 8
ENDMDL
MODEL 8
REMARK VINA RESULT:      -8.7      3.253      9.460
REMARK  Name = 446541
REMARK  8 active torsions:
REMARK  status: ('A' for Active; 'I' for Inactive)
REMARK    1  A    between atoms: C_4  and  C_16
REMARK    2  A    between atoms: C_7  and  O_12
REMARK    3  A    between atoms: C_8  and  O_14
REMARK    4  A    between atoms: C_16  and  C_17
REMARK    5  A    between atoms: C_18  and  C_20
REMARK    6  A    between atoms: C_20  and  C_21
REMARK    7  A    between atoms: C_21  and  C_23
REMARK    8  A    between atoms: C_23  and  O_24
REMARK                            x       y       z     vdW  Elec       q    Type
REMARK                         _______ _______ _______ _____ _____    ______ ____
ROOT
ATOM      1  O   UNL     1      30.750 -23.253 -13.501  0.00  0.00    -0.440 OA
ATOM      2  O   UNL     1      29.518 -22.935 -15.431  0.00  0.00    -0.245 OA
ATOM      3  C   UNL     1      32.825 -23.381 -14.442  0.00  0.00    +0.029 A 
ATOM      4  C   UNL     1      33.600 -23.207 -17.081  0.00  0.00    +0.050 A 
ATOM      5  C   UNL     1      31.898 -23.186 -15.447  0.00  0.00    +0.108 A 
ATOM      6  C   UNL     1      34.169 -23.494 -14.742  0.00  0.00    +0.012 A 
ATOM      7  C   UNL     1      34.559 -23.404 -16.082  0.00  0.00    +0.134 A 
ATOM      8  C   UNL     1      32.250 -23.094 -16.780  0.00  0.00    +0.139 A 
ATOM      9  C   UNL     1      32.142 -23.435 -13.138  0.00  0.00    +0.235 C 
ATOM     10  C   UNL     1      30.573 -23.104 -14.853  0.00  0.00    +0.344 C 
ATOM     11  C   UNL     1      35.174 -23.701 -13.660  0.00  0.00    +0.034 C 
ENDROOT
BRANCH   7  12
ATOM     12  O   UNL     1      35.881 -23.510 -16.410  0.00  0.00    -0.472 OA
ATOM     13  C   UNL     1      36.644 -22.308 -16.404  0.00  0.00    +0.252 C 
ENDBRANCH   7  12
BRANCH   8  14
ATOM     14  O   UNL     1      31.317 -22.902 -17.747  0.00  0.00    -0.506 OA
ATOM     15  H   UNL     1      31.541 -22.435 -18.528  0.00  0.00    +0.292 HD
ENDBRANCH   8  14
BRANCH   4  16
ATOM     16  C   UNL     1      34.045 -23.113 -18.522  0.00  0.00    +0.058 C 
BRANCH  16  17
ATOM     17  C   UNL     1      33.613 -21.827 -19.169  0.00  0.00    -0.030 C 
ATOM     18  C   UNL     1      34.350 -20.996 -19.932  0.00  0.00    -0.047 C 
ATOM     19  C   UNL     1      35.793 -21.317 -20.222  0.00  0.00    +0.026 C 
BRANCH  18  20
ATOM     20  C   UNL     1      33.848 -19.701 -20.528  0.00  0.00    +0.033 C 
BRANCH  20  21
ATOM     21  C   UNL     1      34.604 -19.319 -21.802  0.00  0.00    +0.114 C 
BRANCH  21  23
ATOM     22  O   UNL     1      35.288 -17.274 -20.671  0.00  0.00    -0.250 OA
ATOM     23  C   UNL     1      35.322 -17.997 -21.656  0.00  0.00    +0.314 C 
BRANCH  23  24
ATOM     24  O   UNL     1      36.035 -17.693 -22.773  0.00  0.00    -0.480 OA
ATOM     25  H   UNL     1      35.591 -17.403 -23.547  0.00  0.00    +0.295 HD
ENDBRANCH  23  24
ENDBRANCH  21  23
ENDBRANCH  20  21
ENDBRANCH  18  20
ENDBRANCH  16  17
ENDBRANCH   4  16
TORSDOF 8
ENDMDL
MODEL 9
REMARK VINA RESULT:      -8.7      8.022     10.811
REMARK  Name = 446541
REMARK  8 active torsions:
REMARK  status: ('A' for Active; 'I' for Inactive)
REMARK    1  A    between atoms: C_4  and  C_16
REMARK    2  A    between atoms: C_7  and  O_12
REMARK    3  A    between atoms: C_8  and  O_14
REMARK    4  A    between atoms: C_16  and  C_17
REMARK    5  A    between atoms: C_18  and  C_20
REMARK    6  A    between atoms: C_20  and  C_21
REMARK    7  A    between atoms: C_21  and  C_23
REMARK    8  A    between atoms: C_23  and  O_24
REMARK                            x       y       z     vdW  Elec       q    Type
REMARK                         _______ _______ _______ _____ _____    ______ ____
ROOT
ATOM      1  O   UNL     1      36.697 -23.742 -12.274  0.00  0.00    -0.440 OA
ATOM      2  O   UNL     1      34.958 -24.904 -11.291  0.00  0.00    -0.245 OA
ATOM      3  C   UNL     1      35.709 -23.288 -14.280  0.00  0.00    +0.029 A 
ATOM      4  C   UNL     1      33.201 -23.937 -15.221  0.00  0.00    +0.050 A 
ATOM      5  C   UNL     1      34.819 -24.002 -13.503  0.00  0.00    +0.108 A 
ATOM      6  C   UNL     1      35.358 -22.881 -15.554  0.00  0.00    +0.012 A 
ATOM      7  C   UNL     1      34.084 -23.212 -16.028  0.00  0.00    +0.134 A 
ATOM      8  C   UNL     1      33.554 -24.345 -13.942  0.00  0.00    +0.139 A 
ATOM      9  C   UNL     1      36.964 -23.080 -13.537  0.00  0.00    +0.235 C 
ATOM     10  C   UNL     1      35.443 -24.295 -12.224  0.00  0.00    +0.344 C 
ATOM     11  C   UNL     1      36.315 -22.107 -16.395  0.00  0.00    +0.034 C 
ENDROOT
BRANCH   7  12
ATOM     12  O   UNL     1      33.708 -22.824 -17.282  0.00  0.00    -0.472 OA
ATOM     13  C   UNL     1      33.886 -23.772 -18.330  0.00  0.00    +0.252 C 
ENDBRANCH   7  12
BRANCH   8  14
ATOM     14  O   UNL     1      32.699 -25.048 -13.156  0.00  0.00    -0.506 OA
ATOM     15  H   UNL     1      32.027 -24.602 -12.679  0.00  0.00    +0.292 HD
ENDBRANCH   8  14
BRANCH   4  16
ATOM     16  C   UNL     1      31.830 -24.282 -15.755  0.00  0.00    +0.058 C 
BRANCH  16  17
ATOM     17  C   UNL     1      30.850 -23.156 -15.578  0.00  0.00    -0.030 C 
ATOM     18  C   UNL     1      29.519 -23.241 -15.387  0.00  0.00    -0.047 C 
ATOM     19  C   UNL     1      28.847 -24.588 -15.331  0.00  0.00    +0.026 C 
BRANCH  18  20
ATOM     20  C   UNL     1      28.592 -22.055 -15.245  0.00  0.00    +0.033 C 
BRANCH  20  21
ATOM     21  C   UNL     1      27.189 -22.350 -15.779  0.00  0.00    +0.114 C 
BRANCH  21  23
ATOM     22  O   UNL     1      26.698 -20.910 -17.680  0.00  0.00    -0.250 OA
ATOM     23  C   UNL     1      27.057 -21.994 -17.242  0.00  0.00    +0.314 C 
BRANCH  23  24
ATOM     24  O   UNL     1      27.395 -23.040 -18.041  0.00  0.00    -0.480 OA
ATOM     25  H   UNL     1      27.444 -23.905 -17.683  0.00  0.00    +0.295 HD
ENDBRANCH  23  24
ENDBRANCH  21  23
ENDBRANCH  20  21
ENDBRANCH  18  20
ENDBRANCH  16  17
ENDBRANCH   4  16
TORSDOF 8
ENDMDL
