MODEL 1
REMARK VINA RESULT:      -8.9      0.000      0.000
REMARK  Name = 17754181
REMARK  8 active torsions:
REMARK  status: ('A' for Active; 'I' for Inactive)
REMARK    1  A    between atoms: N_1  and  C_4
REMARK    2  A    between atoms: N_1  and  C_16
REMARK    3  A    between atoms: C_3  and  S_9
REMARK    4  A    between atoms: S_9  and  N_12
REMARK    5  A    between atoms: C_16  and  O_17
REMARK    6  A    between atoms: O_17  and  C_18
REMARK    7  A    between atoms: C_18  and  C_19
REMARK    8  A    between atoms: C_19  and  C_21
REMARK                            x       y       z     vdW  Elec       q    Type
REMARK                         _______ _______ _______ _____ _____    ______ ____
ROOT
ATOM      1  N   UNL     1      35.906 -18.252 -21.832  0.00  0.00    -0.278 N 
ATOM      2  H   UNL     1      36.865 -18.081 -21.688  0.00  0.00    +0.156 HD
ENDROOT
BRANCH   1   4
ATOM      3  C   UNL     1      34.390 -21.445 -19.591  0.00  0.00    +0.122 C 
ATOM      4  C   UNL     1      35.401 -19.317 -21.085  0.00  0.00    +0.051 C 
ATOM      5  C   UNL     1      35.769 -21.266 -19.705  0.00  0.00    +0.021 C 
ATOM      6  C   UNL     1      33.517 -20.560 -20.224  0.00  0.00    +0.021 C 
ATOM      7  C   UNL     1      36.274 -20.201 -20.452  0.00  0.00    +0.016 C 
ATOM      8  C   UNL     1      34.022 -19.496 -20.971  0.00  0.00    +0.016 C 
BRANCH   3   9
ATOM      9  S   UNL     1      33.758 -22.778 -18.657  0.00  0.00    +0.057 S 
ATOM     10  O   UNL     1      32.432 -22.415 -18.179  0.00  0.00    -0.153 OA
ATOM     11  O   UNL     1      33.943 -24.005 -19.418  0.00  0.00    -0.153 OA
BRANCH   9  12
ATOM     12  N   UNL     1      34.838 -22.787 -17.331  0.00  0.00    -0.203 NA
ATOM     13  H   UNL     1      35.791 -22.656 -17.669  0.00  0.00    +0.144 HD
ATOM     14  H   UNL     1      34.769 -23.680 -16.843  0.00  0.00    +0.144 HD
ENDBRANCH   9  12
ENDBRANCH   3   9
ENDBRANCH   1   4
BRANCH   1  16
ATOM     15  S   UNL     1      34.856 -17.922 -24.268  0.00  0.00    +0.006 S 
ATOM     16  C   UNL     1      35.304 -17.386 -22.746  0.00  0.00    +0.233 C 
BRANCH  16  17
ATOM     17  O   UNL     1      35.113 -16.108 -22.325  0.00  0.00    -0.458 OA
BRANCH  17  18
ATOM     18  C   UNL     1      34.521 -15.760 -21.056  0.00  0.00    +0.212 C 
BRANCH  18  19
ATOM     19  C   UNL     1      33.010 -15.611 -21.216  0.00  0.00    +0.074 C 
BRANCH  19  21
ATOM     20  S   UNL     1      31.964 -11.926 -22.455  0.00  0.00    -0.086 S 
ATOM     21  C   UNL     1      32.582 -14.182 -21.392  0.00  0.00    -0.011 C 
ATOM     22  C   UNL     1      32.228 -13.320 -20.314  0.00  0.00    +0.003 C 
ATOM     23  C   UNL     1      32.481 -13.551 -22.612  0.00  0.00    +0.031 C 
ATOM     24  C   UNL     1      31.872 -12.064 -20.752  0.00  0.00    +0.035 C 
ENDBRANCH  19  21
ENDBRANCH  18  19
ENDBRANCH  17  18
ENDBRANCH  16  17
ENDBRANCH   1  16
TORSDOF 8
ENDMDL
MODEL 2
REMARK VINA RESULT:      -8.8      1.773      2.250
REMARK  Name = 17754181
REMARK  8 active torsions:
REMARK  status: ('A' for Active; 'I' for Inactive)
REMARK    1  A    between atoms: N_1  and  C_4
REMARK    2  A    between atoms: N_1  and  C_16
REMARK    3  A    between atoms: C_3  and  S_9
REMARK    4  A    between atoms: S_9  and  N_12
REMARK    5  A    between atoms: C_16  and  O_17
REMARK    6  A    between atoms: O_17  and  C_18
REMARK    7  A    between atoms: C_18  and  C_19
REMARK    8  A    between atoms: C_19  and  C_21
REMARK                            x       y       z     vdW  Elec       q    Type
REMARK                         _______ _______ _______ _____ _____    ______ ____
ROOT
ATOM      1  N   UNL     1      35.584 -18.127 -21.904  0.00  0.00    -0.278 N 
ATOM      2  H   UNL     1      36.555 -17.969 -21.861  0.00  0.00    +0.156 HD
ENDROOT
BRANCH   1   4
ATOM      3  C   UNL     1      34.285 -21.393 -19.632  0.00  0.00    +0.122 C 
ATOM      4  C   UNL     1      35.151 -19.215 -21.147  0.00  0.00    +0.051 C 
ATOM      5  C   UNL     1      35.649 -21.141 -19.774  0.00  0.00    +0.021 C 
ATOM      6  C   UNL     1      33.353 -20.556 -20.248  0.00  0.00    +0.021 C 
ATOM      7  C   UNL     1      36.082 -20.052 -20.532  0.00  0.00    +0.016 C 
ATOM      8  C   UNL     1      33.786 -19.467 -21.005  0.00  0.00    +0.016 C 
BRANCH   3   9
ATOM      9  S   UNL     1      33.743 -22.756 -18.685  0.00  0.00    +0.057 S 
ATOM     10  O   UNL     1      32.437 -22.437 -18.128  0.00  0.00    -0.153 OA
ATOM     11  O   UNL     1      33.918 -23.966 -19.475  0.00  0.00    -0.153 OA
BRANCH   9  12
ATOM     12  N   UNL     1      34.896 -22.753 -17.423  0.00  0.00    -0.203 NA
ATOM     13  H   UNL     1      35.373 -21.852 -17.401  0.00  0.00    +0.144 HD
ATOM     14  H   UNL     1      35.578 -23.495 -17.583  0.00  0.00    +0.144 HD
ENDBRANCH   9  12
ENDBRANCH   3   9
ENDBRANCH   1   4
BRANCH   1  16
ATOM     15  S   UNL     1      34.782 -17.460 -24.366  0.00  0.00    +0.006 S 
ATOM     16  C   UNL     1      34.896 -17.220 -22.712  0.00  0.00    +0.233 C 
BRANCH  16  17
ATOM     17  O   UNL     1      34.339 -16.155 -22.078  0.00  0.00    -0.458 OA
BRANCH  17  18
ATOM     18  C   UNL     1      34.486 -14.790 -22.521  0.00  0.00    +0.212 C 
BRANCH  18  19
ATOM     19  C   UNL     1      33.158 -14.281 -23.073  0.00  0.00    +0.074 C 
BRANCH  19  21
ATOM     20  S   UNL     1      33.245 -13.257 -26.965  0.00  0.00    -0.086 S 
ATOM     21  C   UNL     1      33.296 -13.642 -24.426  0.00  0.00    -0.011 C 
ATOM     22  C   UNL     1      33.776 -12.318 -24.634  0.00  0.00    +0.003 C 
ATOM     23  C   UNL     1      32.970 -14.266 -25.610  0.00  0.00    +0.031 C 
ATOM     24  C   UNL     1      33.801 -11.980 -25.969  0.00  0.00    +0.035 C 
ENDBRANCH  19  21
ENDBRANCH  18  19
ENDBRANCH  17  18
ENDBRANCH  16  17
ENDBRANCH   1  16
TORSDOF 8
ENDMDL
MODEL 3
REMARK VINA RESULT:      -8.7      1.377      1.786
REMARK  Name = 17754181
REMARK  8 active torsions:
REMARK  status: ('A' for Active; 'I' for Inactive)
REMARK    1  A    between atoms: N_1  and  C_4
REMARK    2  A    between atoms: N_1  and  C_16
REMARK    3  A    between atoms: C_3  and  S_9
REMARK    4  A    between atoms: S_9  and  N_12
REMARK    5  A    between atoms: C_16  and  O_17
REMARK    6  A    between atoms: O_17  and  C_18
REMARK    7  A    between atoms: C_18  and  C_19
REMARK    8  A    between atoms: C_19  and  C_21
REMARK                            x       y       z     vdW  Elec       q    Type
REMARK                         _______ _______ _______ _____ _____    ______ ____
ROOT
ATOM      1  N   UNL     1      35.754 -18.038 -21.952  0.00  0.00    -0.278 N 
ATOM      2  H   UNL     1      36.718 -17.848 -21.891  0.00  0.00    +0.156 HD
ENDROOT
BRANCH   1   4
ATOM      3  C   UNL     1      34.519 -21.323 -19.672  0.00  0.00    +0.122 C 
ATOM      4  C   UNL     1      35.342 -19.133 -21.192  0.00  0.00    +0.051 C 
ATOM      5  C   UNL     1      35.878 -21.042 -19.810  0.00  0.00    +0.021 C 
ATOM      6  C   UNL     1      33.571 -20.510 -20.293  0.00  0.00    +0.021 C 
ATOM      7  C   UNL     1      36.290 -19.947 -20.571  0.00  0.00    +0.016 C 
ATOM      8  C   UNL     1      33.983 -19.415 -21.053  0.00  0.00    +0.016 C 
BRANCH   3   9
ATOM      9  S   UNL     1      34.005 -22.694 -18.721  0.00  0.00    +0.057 S 
ATOM     10  O   UNL     1      33.937 -23.858 -19.593  0.00  0.00    -0.153 OA
ATOM     11  O   UNL     1      34.808 -22.743 -17.508  0.00  0.00    -0.153 OA
BRANCH   9  12
ATOM     12  N   UNL     1      32.414 -22.223 -18.306  0.00  0.00    -0.203 NA
ATOM     13  H   UNL     1      32.336 -21.208 -18.359  0.00  0.00    +0.144 HD
ATOM     14  H   UNL     1      32.205 -22.531 -17.356  0.00  0.00    +0.144 HD
ENDBRANCH   9  12
ENDBRANCH   3   9
ENDBRANCH   1   4
BRANCH   1  16
ATOM     15  S   UNL     1      34.779 -17.544 -24.392  0.00  0.00    +0.006 S 
ATOM     16  C   UNL     1      35.052 -17.164 -22.783  0.00  0.00    +0.233 C 
BRANCH  16  17
ATOM     17  O   UNL     1      34.618 -16.011 -22.211  0.00  0.00    -0.458 OA
BRANCH  17  18
ATOM     18  C   UNL     1      34.446 -14.772 -22.930  0.00  0.00    +0.212 C 
BRANCH  18  19
ATOM     19  C   UNL     1      32.992 -14.318 -22.836  0.00  0.00    +0.074 C 
BRANCH  19  21
ATOM     20  S   UNL     1      32.036 -10.418 -22.552  0.00  0.00    -0.086 S 
ATOM     21  C   UNL     1      32.840 -12.827 -22.939  0.00  0.00    -0.011 C 
ATOM     22  C   UNL     1      33.597 -12.011 -23.826  0.00  0.00    +0.003 C 
ATOM     23  C   UNL     1      31.953 -12.089 -22.187  0.00  0.00    +0.031 C 
ATOM     24  C   UNL     1      33.261 -10.679 -23.719  0.00  0.00    +0.035 C 
ENDBRANCH  19  21
ENDBRANCH  18  19
ENDBRANCH  17  18
ENDBRANCH  16  17
ENDBRANCH   1  16
TORSDOF 8
ENDMDL
MODEL 4
REMARK VINA RESULT:      -8.6      4.103      9.452
REMARK  Name = 17754181
REMARK  8 active torsions:
REMARK  status: ('A' for Active; 'I' for Inactive)
REMARK    1  A    between atoms: N_1  and  C_4
REMARK    2  A    between atoms: N_1  and  C_16
REMARK    3  A    between atoms: C_3  and  S_9
REMARK    4  A    between atoms: S_9  and  N_12
REMARK    5  A    between atoms: C_16  and  O_17
REMARK    6  A    between atoms: O_17  and  C_18
REMARK    7  A    between atoms: C_18  and  C_19
REMARK    8  A    between atoms: C_19  and  C_21
REMARK                            x       y       z     vdW  Elec       q    Type
REMARK                         _______ _______ _______ _____ _____    ______ ____
ROOT
ATOM      1  N   UNL     1      33.469 -23.050 -18.625  0.00  0.00    -0.278 N 
ATOM      2  H   UNL     1      33.087 -23.759 -19.192  0.00  0.00    +0.156 HD
ENDROOT
BRANCH   1   4
ATOM      3  C   UNL     1      35.023 -19.808 -20.768  0.00  0.00    +0.122 C 
ATOM      4  C   UNL     1      33.987 -21.969 -19.340  0.00  0.00    +0.051 C 
ATOM      5  C   UNL     1      35.885 -20.747 -20.203  0.00  0.00    +0.021 C 
ATOM      6  C   UNL     1      33.643 -19.948 -20.619  0.00  0.00    +0.021 C 
ATOM      7  C   UNL     1      35.367 -21.828 -19.488  0.00  0.00    +0.016 C 
ATOM      8  C   UNL     1      33.125 -21.029 -19.905  0.00  0.00    +0.016 C 
BRANCH   3   9
ATOM      9  S   UNL     1      35.671 -18.455 -21.661  0.00  0.00    +0.057 S 
ATOM     10  O   UNL     1      37.117 -18.608 -21.741  0.00  0.00    -0.153 OA
ATOM     11  O   UNL     1      34.892 -18.289 -22.879  0.00  0.00    -0.153 OA
BRANCH   9  12
ATOM     12  N   UNL     1      35.313 -17.163 -20.600  0.00  0.00    -0.203 NA
ATOM     13  H   UNL     1      35.921 -17.215 -19.785  0.00  0.00    +0.144 HD
ATOM     14  H   UNL     1      34.339 -17.228 -20.303  0.00  0.00    +0.144 HD
ENDBRANCH   9  12
ENDBRANCH   3   9
ENDBRANCH   1   4
BRANCH   1  16
ATOM     15  S   UNL     1      31.945 -23.135 -16.431  0.00  0.00    +0.006 S 
ATOM     16  C   UNL     1      33.391 -23.311 -17.257  0.00  0.00    +0.233 C 
BRANCH  16  17
ATOM     17  O   UNL     1      34.543 -23.709 -16.657  0.00  0.00    -0.458 OA
BRANCH  17  18
ATOM     18  C   UNL     1      35.250 -22.925 -15.673  0.00  0.00    +0.212 C 
BRANCH  18  19
ATOM     19  C   UNL     1      36.733 -23.283 -15.696  0.00  0.00    +0.074 C 
BRANCH  19  21
ATOM     20  S   UNL     1      37.895 -25.663 -12.665  0.00  0.00    -0.086 S 
ATOM     21  C   UNL     1      37.080 -24.390 -14.742  0.00  0.00    -0.011 C 
ATOM     22  C   UNL     1      36.880 -25.772 -15.022  0.00  0.00    +0.003 C 
ATOM     23  C   UNL     1      37.625 -24.189 -13.493  0.00  0.00    +0.031 C 
ATOM     24  C   UNL     1      37.281 -26.575 -13.977  0.00  0.00    +0.035 C 
ENDBRANCH  19  21
ENDBRANCH  18  19
ENDBRANCH  17  18
ENDBRANCH  16  17
ENDBRANCH   1  16
TORSDOF 8
ENDMDL
MODEL 5
REMARK VINA RESULT:      -8.5      4.060      9.420
REMARK  Name = 17754181
REMARK  8 active torsions:
REMARK  status: ('A' for Active; 'I' for Inactive)
REMARK    1  A    between atoms: N_1  and  C_4
REMARK    2  A    between atoms: N_1  and  C_16
REMARK    3  A    between atoms: C_3  and  S_9
REMARK    4  A    between atoms: S_9  and  N_12
REMARK    5  A    between atoms: C_16  and  O_17
REMARK    6  A    between atoms: O_17  and  C_18
REMARK    7  A    between atoms: C_18  and  C_19
REMARK    8  A    between atoms: C_19  and  C_21
REMARK                            x       y       z     vdW  Elec       q    Type
REMARK                         _______ _______ _______ _____ _____    ______ ____
ROOT
ATOM      1  N   UNL     1      33.440 -23.013 -18.609  0.00  0.00    -0.278 N 
ATOM      2  H   UNL     1      32.972 -23.670 -19.173  0.00  0.00    +0.156 HD
ENDROOT
BRANCH   1   4
ATOM      3  C   UNL     1      35.101 -19.815 -20.737  0.00  0.00    +0.122 C 
ATOM      4  C   UNL     1      33.994 -21.947 -19.318  0.00  0.00    +0.051 C 
ATOM      5  C   UNL     1      35.933 -20.754 -20.128  0.00  0.00    +0.021 C 
ATOM      6  C   UNL     1      33.715 -19.942 -20.637  0.00  0.00    +0.021 C 
ATOM      7  C   UNL     1      35.380 -21.820 -19.418  0.00  0.00    +0.016 C 
ATOM      8  C   UNL     1      33.162 -21.008 -19.927  0.00  0.00    +0.016 C 
BRANCH   3   9
ATOM      9  S   UNL     1      35.794 -18.481 -21.625  0.00  0.00    +0.057 S 
ATOM     10  O   UNL     1      35.278 -17.240 -21.065  0.00  0.00    -0.153 OA
ATOM     11  O   UNL     1      37.231 -18.689 -21.724  0.00  0.00    -0.153 OA
BRANCH   9  12
ATOM     12  N   UNL     1      35.098 -18.720 -23.168  0.00  0.00    -0.203 NA
ATOM     13  H   UNL     1      35.647 -19.406 -23.685  0.00  0.00    +0.144 HD
ATOM     14  H   UNL     1      35.089 -17.837 -23.677  0.00  0.00    +0.144 HD
ENDBRANCH   9  12
ENDBRANCH   3   9
ENDBRANCH   1   4
BRANCH   1  16
ATOM     15  S   UNL     1      32.003 -23.250 -16.367  0.00  0.00    +0.006 S 
ATOM     16  C   UNL     1      33.426 -23.320 -17.248  0.00  0.00    +0.233 C 
BRANCH  16  17
ATOM     17  O   UNL     1      34.619 -23.669 -16.700  0.00  0.00    -0.458 OA
BRANCH  17  18
ATOM     18  C   UNL     1      35.266 -22.930 -15.643  0.00  0.00    +0.212 C 
BRANCH  18  19
ATOM     19  C   UNL     1      36.773 -23.163 -15.698  0.00  0.00    +0.074 C 
BRANCH  19  21
ATOM     20  S   UNL     1      37.272 -25.952 -12.837  0.00  0.00    -0.086 S 
ATOM     21  C   UNL     1      37.234 -24.220 -14.734  0.00  0.00    -0.011 C 
ATOM     22  C   UNL     1      38.549 -24.767 -14.725  0.00  0.00    +0.003 C 
ATOM     23  C   UNL     1      36.435 -24.776 -13.760  0.00  0.00    +0.031 C 
ATOM     24  C   UNL     1      38.706 -25.720 -13.743  0.00  0.00    +0.035 C 
ENDBRANCH  19  21
ENDBRANCH  18  19
ENDBRANCH  17  18
ENDBRANCH  16  17
ENDBRANCH   1  16
TORSDOF 8
ENDMDL
MODEL 6
REMARK VINA RESULT:      -8.4      4.580      7.429
REMARK  Name = 17754181
REMARK  8 active torsions:
REMARK  status: ('A' for Active; 'I' for Inactive)
REMARK    1  A    between atoms: N_1  and  C_4
REMARK    2  A    between atoms: N_1  and  C_16
REMARK    3  A    between atoms: C_3  and  S_9
REMARK    4  A    between atoms: S_9  and  N_12
REMARK    5  A    between atoms: C_16  and  O_17
REMARK    6  A    between atoms: O_17  and  C_18
REMARK    7  A    between atoms: C_18  and  C_19
REMARK    8  A    between atoms: C_19  and  C_21
REMARK                            x       y       z     vdW  Elec       q    Type
REMARK                         _______ _______ _______ _____ _____    ______ ____
ROOT
ATOM      1  N   UNL     1      34.195 -22.910 -16.027  0.00  0.00    -0.278 N 
ATOM      2  H   UNL     1      34.056 -22.052 -15.565  0.00  0.00    +0.156 HD
ENDROOT
BRANCH   1   4
ATOM      3  C   UNL     1      37.769 -24.833 -15.002  0.00  0.00    +0.122 C 
ATOM      4  C   UNL     1      35.387 -23.551 -15.685  0.00  0.00    +0.051 C 
ATOM      5  C   UNL     1      37.795 -23.527 -15.489  0.00  0.00    +0.021 C 
ATOM      6  C   UNL     1      36.551 -25.499 -14.855  0.00  0.00    +0.021 C 
ATOM      7  C   UNL     1      36.604 -22.886 -15.831  0.00  0.00    +0.016 C 
ATOM      8  C   UNL     1      35.360 -24.858 -15.197  0.00  0.00    +0.016 C 
BRANCH   3   9
ATOM      9  S   UNL     1      39.259 -25.635 -14.575  0.00  0.00    +0.057 S 
ATOM     10  O   UNL     1      39.874 -24.907 -13.474  0.00  0.00    -0.153 OA
ATOM     11  O   UNL     1      38.996 -27.061 -14.442  0.00  0.00    -0.153 OA
BRANCH   9  12
ATOM     12  N   UNL     1      40.184 -25.378 -15.989  0.00  0.00    -0.203 NA
ATOM     13  H   UNL     1      39.642 -25.661 -16.805  0.00  0.00    +0.144 HD
ATOM     14  H   UNL     1      41.040 -25.931 -15.941  0.00  0.00    +0.144 HD
ENDBRANCH   9  12
ENDBRANCH   3   9
ENDBRANCH   1   4
BRANCH   1  16
ATOM     15  S   UNL     1      31.592 -23.419 -16.353  0.00  0.00    +0.006 S 
ATOM     16  C   UNL     1      33.166 -23.260 -16.902  0.00  0.00    +0.233 C 
BRANCH  16  17
ATOM     17  O   UNL     1      33.522 -23.460 -18.198  0.00  0.00    -0.458 OA
BRANCH  17  18
ATOM     18  C   UNL     1      34.302 -22.523 -18.970  0.00  0.00    +0.212 C 
BRANCH  18  19
ATOM     19  C   UNL     1      33.372 -21.567 -19.712  0.00  0.00    +0.074 C 
BRANCH  19  21
ATOM     20  S   UNL     1      34.606 -18.170 -21.486  0.00  0.00    -0.086 S 
ATOM     21  C   UNL     1      34.102 -20.413 -20.339  0.00  0.00    -0.011 C 
ATOM     22  C   UNL     1      35.518 -20.349 -20.476  0.00  0.00    +0.003 C 
ATOM     23  C   UNL     1      33.482 -19.293 -20.847  0.00  0.00    +0.031 C 
ATOM     24  C   UNL     1      35.927 -19.183 -21.084  0.00  0.00    +0.035 C 
ENDBRANCH  19  21
ENDBRANCH  18  19
ENDBRANCH  17  18
ENDBRANCH  16  17
ENDBRANCH   1  16
TORSDOF 8
ENDMDL
MODEL 7
REMARK VINA RESULT:      -8.3      6.145      8.910
REMARK  Name = 17754181
REMARK  8 active torsions:
REMARK  status: ('A' for Active; 'I' for Inactive)
REMARK    1  A    between atoms: N_1  and  C_4
REMARK    2  A    between atoms: N_1  and  C_16
REMARK    3  A    between atoms: C_3  and  S_9
REMARK    4  A    between atoms: S_9  and  N_12
REMARK    5  A    between atoms: C_16  and  O_17
REMARK    6  A    between atoms: O_17  and  C_18
REMARK    7  A    between atoms: C_18  and  C_19
REMARK    8  A    between atoms: C_19  and  C_21
REMARK                            x       y       z     vdW  Elec       q    Type
REMARK                         _______ _______ _______ _____ _____    ______ ____
ROOT
ATOM      1  N   UNL     1      32.939 -24.618 -13.677  0.00  0.00    -0.278 N 
ATOM      2  H   UNL     1      32.789 -25.167 -12.873  0.00  0.00    +0.156 HD
ENDROOT
BRANCH   1   4
ATOM      3  C   UNL     1      29.421 -23.449 -15.620  0.00  0.00    +0.122 C 
ATOM      4  C   UNL     1      31.766 -24.229 -14.325  0.00  0.00    +0.051 C 
ATOM      5  C   UNL     1      30.350 -22.488 -15.222  0.00  0.00    +0.021 C 
ATOM      6  C   UNL     1      29.665 -24.800 -15.371  0.00  0.00    +0.021 C 
ATOM      7  C   UNL     1      31.523 -22.877 -14.574  0.00  0.00    +0.016 C 
ATOM      8  C   UNL     1      30.838 -25.190 -14.723  0.00  0.00    +0.016 C 
BRANCH   3   9
ATOM      9  S   UNL     1      27.954 -22.961 -16.430  0.00  0.00    +0.057 S 
ATOM     10  O   UNL     1      26.887 -22.888 -15.442  0.00  0.00    -0.153 OA
ATOM     11  O   UNL     1      28.248 -21.806 -17.265  0.00  0.00    -0.153 OA
BRANCH   9  12
ATOM     12  N   UNL     1      27.676 -24.312 -17.440  0.00  0.00    -0.203 NA
ATOM     13  H   UNL     1      27.076 -24.037 -18.217  0.00  0.00    +0.144 HD
ATOM     14  H   UNL     1      27.220 -25.050 -16.903  0.00  0.00    +0.144 HD
ENDBRANCH   9  12
ENDBRANCH   3   9
ENDBRANCH   1   4
BRANCH   1  16
ATOM     15  S   UNL     1      35.375 -24.070 -12.724  0.00  0.00    +0.006 S 
ATOM     16  C   UNL     1      34.284 -24.374 -13.958  0.00  0.00    +0.233 C 
BRANCH  16  17
ATOM     17  O   UNL     1      34.637 -24.400 -15.269  0.00  0.00    -0.458 OA
BRANCH  17  18
ATOM     18  C   UNL     1      34.735 -23.223 -16.098  0.00  0.00    +0.212 C 
BRANCH  18  19
ATOM     19  C   UNL     1      33.900 -23.412 -17.362  0.00  0.00    +0.074 C 
BRANCH  19  21
ATOM     20  S   UNL     1      33.901 -20.605 -20.248  0.00  0.00    -0.086 S 
ATOM     21  C   UNL     1      34.193 -22.380 -18.414  0.00  0.00    -0.011 C 
ATOM     22  C   UNL     1      35.507 -21.972 -18.782  0.00  0.00    +0.003 C 
ATOM     23  C   UNL     1      33.224 -21.715 -19.133  0.00  0.00    +0.031 C 
ATOM     24  C   UNL     1      35.493 -21.012 -19.769  0.00  0.00    +0.035 C 
ENDBRANCH  19  21
ENDBRANCH  18  19
ENDBRANCH  17  18
ENDBRANCH  16  17
ENDBRANCH   1  16
TORSDOF 8
ENDMDL
MODEL 8
REMARK VINA RESULT:      -8.2      4.851      7.552
REMARK  Name = 17754181
REMARK  8 active torsions:
REMARK  status: ('A' for Active; 'I' for Inactive)
REMARK    1  A    between atoms: N_1  and  C_4
REMARK    2  A    between atoms: N_1  and  C_16
REMARK    3  A    between atoms: C_3  and  S_9
REMARK    4  A    between atoms: S_9  and  N_12
REMARK    5  A    between atoms: C_16  and  O_17
REMARK    6  A    between atoms: O_17  and  C_18
REMARK    7  A    between atoms: C_18  and  C_19
REMARK    8  A    between atoms: C_19  and  C_21
REMARK                            x       y       z     vdW  Elec       q    Type
REMARK                         _______ _______ _______ _____ _____    ______ ____
ROOT
ATOM      1  N   UNL     1      34.491 -22.797 -16.527  0.00  0.00    -0.278 N 
ATOM      2  H   UNL     1      34.783 -21.879 -16.730  0.00  0.00    +0.156 HD
ENDROOT
BRANCH   1   4
ATOM      3  C   UNL     1      36.860 -24.749 -13.683  0.00  0.00    +0.122 C 
ATOM      4  C   UNL     1      35.281 -23.448 -15.579  0.00  0.00    +0.051 C 
ATOM      5  C   UNL     1      35.470 -24.806 -13.589  0.00  0.00    +0.021 C 
ATOM      6  C   UNL     1      37.461 -24.042 -14.724  0.00  0.00    +0.021 C 
ATOM      7  C   UNL     1      34.680 -24.156 -14.537  0.00  0.00    +0.016 C 
ATOM      8  C   UNL     1      36.671 -23.391 -15.672  0.00  0.00    +0.016 C 
BRANCH   3   9
ATOM      9  S   UNL     1      37.849 -25.563 -12.495  0.00  0.00    +0.057 S 
ATOM     10  O   UNL     1      37.024 -26.544 -11.806  0.00  0.00    -0.153 OA
ATOM     11  O   UNL     1      39.089 -25.979 -13.133  0.00  0.00    -0.153 OA
BRANCH   9  12
ATOM     12  N   UNL     1      38.189 -24.277 -11.420  0.00  0.00    -0.203 NA
ATOM     13  H   UNL     1      39.194 -24.107 -11.403  0.00  0.00    +0.144 HD
ATOM     14  H   UNL     1      37.870 -24.524 -10.484  0.00  0.00    +0.144 HD
ENDBRANCH   9  12
ENDBRANCH   3   9
ENDBRANCH   1   4
BRANCH   1  16
ATOM     15  S   UNL     1      31.866 -23.302 -16.499  0.00  0.00    +0.006 S 
ATOM     16  C   UNL     1      33.365 -23.207 -17.242  0.00  0.00    +0.233 C 
BRANCH  16  17
ATOM     17  O   UNL     1      33.564 -23.517 -18.549  0.00  0.00    -0.458 OA
BRANCH  17  18
ATOM     18  C   UNL     1      34.240 -22.653 -19.486  0.00  0.00    +0.212 C 
BRANCH  18  19
ATOM     19  C   UNL     1      33.452 -21.356 -19.652  0.00  0.00    +0.074 C 
BRANCH  19  21
ATOM     20  S   UNL     1      34.831 -18.208 -21.749  0.00  0.00    -0.086 S 
ATOM     21  C   UNL     1      34.232 -20.287 -20.364  0.00  0.00    -0.011 C 
ATOM     22  C   UNL     1      35.655 -20.230 -20.395  0.00  0.00    +0.003 C 
ATOM     23  C   UNL     1      33.657 -19.247 -21.061  0.00  0.00    +0.031 C 
ATOM     24  C   UNL     1      36.113 -19.148 -21.116  0.00  0.00    +0.035 C 
ENDBRANCH  19  21
ENDBRANCH  18  19
ENDBRANCH  17  18
ENDBRANCH  16  17
ENDBRANCH   1  16
TORSDOF 8
ENDMDL
MODEL 9
REMARK VINA RESULT:      -8.2      4.255      8.469
REMARK  Name = 17754181
REMARK  8 active torsions:
REMARK  status: ('A' for Active; 'I' for Inactive)
REMARK    1  A    between atoms: N_1  and  C_4
REMARK    2  A    between atoms: N_1  and  C_16
REMARK    3  A    between atoms: C_3  and  S_9
REMARK    4  A    between atoms: S_9  and  N_12
REMARK    5  A    between atoms: C_16  and  O_17
REMARK    6  A    between atoms: O_17  and  C_18
REMARK    7  A    between atoms: C_18  and  C_19
REMARK    8  A    between atoms: C_19  and  C_21
REMARK                            x       y       z     vdW  Elec       q    Type
REMARK                         _______ _______ _______ _____ _____    ______ ____
ROOT
ATOM      1  N   UNL     1      33.678 -23.215 -18.062  0.00  0.00    -0.278 N 
ATOM      2  H   UNL     1      33.449 -24.062 -18.509  0.00  0.00    +0.156 HD
ENDROOT
BRANCH   1   4
ATOM      3  C   UNL     1      34.691 -20.119 -20.689  0.00  0.00    +0.122 C 
ATOM      4  C   UNL     1      34.016 -22.183 -18.937  0.00  0.00    +0.051 C 
ATOM      5  C   UNL     1      33.356 -20.336 -20.349  0.00  0.00    +0.021 C 
ATOM      6  C   UNL     1      35.689 -20.934 -20.153  0.00  0.00    +0.021 C 
ATOM      7  C   UNL     1      33.018 -21.368 -19.473  0.00  0.00    +0.016 C 
ATOM      8  C   UNL     1      35.351 -21.966 -19.277  0.00  0.00    +0.016 C 
BRANCH   3   9
ATOM      9  S   UNL     1      35.114 -18.828 -21.785  0.00  0.00    +0.057 S 
ATOM     10  O   UNL     1      36.518 -18.498 -21.587  0.00  0.00    -0.153 OA
ATOM     11  O   UNL     1      34.632 -19.174 -23.114  0.00  0.00    -0.153 OA
BRANCH   9  12
ATOM     12  N   UNL     1      34.156 -17.552 -21.170  0.00  0.00    -0.203 NA
ATOM     13  H   UNL     1      33.193 -17.869 -21.069  0.00  0.00    +0.144 HD
ATOM     14  H   UNL     1      34.189 -16.762 -21.814  0.00  0.00    +0.144 HD
ENDBRANCH   9  12
ENDBRANCH   3   9
ENDBRANCH   1   4
BRANCH   1  16
ATOM     15  S   UNL     1      34.987 -23.473 -15.746  0.00  0.00    +0.006 S 
ATOM     16  C   UNL     1      33.605 -23.270 -16.669  0.00  0.00    +0.233 C 
BRANCH  16  17
ATOM     17  O   UNL     1      32.364 -23.151 -16.129  0.00  0.00    -0.458 OA
BRANCH  17  18
ATOM     18  C   UNL     1      32.118 -22.893 -14.731  0.00  0.00    +0.212 C 
BRANCH  18  19
ATOM     19  C   UNL     1      30.884 -23.665 -14.273  0.00  0.00    +0.074 C 
BRANCH  19  21
ATOM     20  S   UNL     1      27.735 -22.536 -16.512  0.00  0.00    -0.086 S 
ATOM     21  C   UNL     1      29.723 -23.518 -15.215  0.00  0.00    -0.011 C 
ATOM     22  C   UNL     1      29.259 -24.556 -16.072  0.00  0.00    +0.003 C 
ATOM     23  C   UNL     1      28.983 -22.364 -15.353  0.00  0.00    +0.031 C 
ATOM     24  C   UNL     1      28.182 -24.157 -16.832  0.00  0.00    +0.035 C 
ENDBRANCH  19  21
ENDBRANCH  18  19
ENDBRANCH  17  18
ENDBRANCH  16  17
ENDBRANCH   1  16
TORSDOF 8
ENDMDL
