MODEL 1
REMARK VINA RESULT:      -9.2      0.000      0.000
REMARK  Name = 150238
REMARK  6 active torsions:
REMARK  status: ('A' for Active; 'I' for Inactive)
REMARK    1  A    between atoms: C_4  and  C_17
REMARK    2  A    between atoms: C_5  and  N_26
REMARK    3  A    between atoms: N_16  and  C_19
REMARK    4  A    between atoms: C_19  and  C_20
REMARK    5  A    between atoms: C_20  and  C_21
REMARK    6  A    between atoms: C_21  and  N_22
REMARK                            x       y       z     vdW  Elec       q    Type
REMARK                         _______ _______ _______ _____ _____    ______ ____
ROOT
ATOM      1  N   UNL     1      33.494 -16.141 -21.605  0.00  0.00    -0.406 NA
ATOM      2  C   UNL     1      33.964 -16.730 -22.722  0.00  0.00    +0.136 C 
ATOM      3  C   UNL     1      33.968 -16.071 -23.962  0.00  0.00    +0.043 C 
ATOM      4  C   UNL     1      34.464 -18.029 -22.669  0.00  0.00    +0.083 C 
ATOM      5  C   UNL     1      33.466 -14.767 -24.010  0.00  0.00    +0.046 C 
ATOM      6  C   UNL     1      32.977 -14.151 -22.854  0.00  0.00    +0.039 C 
ATOM      7  C   UNL     1      33.010 -14.886 -21.656  0.00  0.00    +0.114 C 
ATOM      8  C   UNL     1      34.466 -16.715 -25.108  0.00  0.00    +0.004 C 
ATOM      9  C   UNL     1      34.959 -18.671 -23.805  0.00  0.00    +0.007 C 
ATOM     10  C   UNL     1      34.960 -18.013 -25.028  0.00  0.00    +0.000 C 
ATOM     11  C   UNL     1      32.464 -12.842 -22.872  0.00  0.00    +0.003 C 
ATOM     12  C   UNL     1      32.525 -14.277 -20.501  0.00  0.00    +0.085 C 
ATOM     13  C   UNL     1      31.985 -12.257 -21.703  0.00  0.00    -0.004 C 
ATOM     14  C   UNL     1      32.016 -12.977 -20.516  0.00  0.00    -0.019 C 
ENDROOT
BRANCH   4  17
ATOM     15  O   UNL     1      35.448 -18.648 -20.632  0.00  0.00    -0.270 OA
ATOM     16  N   UNL     1      33.377 -19.565 -21.126  0.00  0.00    -0.301 N 
ATOM     17  C   UNL     1      34.486 -18.764 -21.408  0.00  0.00    +0.248 C 
ATOM     18  H   UNL     1      32.651 -19.608 -21.790  0.00  0.00    +0.150 HD
BRANCH  16  19
ATOM     19  C   UNL     1      33.240 -20.336 -19.910  0.00  0.00    +0.088 C 
BRANCH  19  20
ATOM     20  C   UNL     1      33.966 -21.675 -20.034  0.00  0.00    -0.002 C 
BRANCH  20  21
ATOM     21  C   UNL     1      34.792 -22.056 -18.806  0.00  0.00    -0.076 C 
BRANCH  21  22
ATOM     22  N   UNL     1      36.020 -21.300 -18.760  0.00  0.00    +0.384 N 
ATOM     23  C   UNL     1      36.813 -21.501 -19.981  0.00  0.00    -0.101 C 
ATOM     24  C   UNL     1      36.823 -21.662 -17.584  0.00  0.00    -0.101 C 
ATOM     25  H   UNL     1      35.765 -20.314 -18.693  0.00  0.00    -0.080 HD
ENDBRANCH  21  22
ENDBRANCH  20  21
ENDBRANCH  19  20
ENDBRANCH  16  19
ENDBRANCH   4  17
BRANCH   5  26
ATOM     26  N   UNL     1      33.450 -14.062 -25.244  0.00  0.00    -0.357 N 
ATOM     27  H   UNL     1      32.695 -14.176 -25.866  0.00  0.00    +0.142 HD
ATOM     28  H   UNL     1      34.194 -13.461 -25.478  0.00  0.00    +0.142 HD
ENDBRANCH   5  26
TORSDOF 6
ENDMDL
MODEL 2
REMARK VINA RESULT:      -9.2      3.961     10.554
REMARK  Name = 150238
REMARK  6 active torsions:
REMARK  status: ('A' for Active; 'I' for Inactive)
REMARK    1  A    between atoms: C_4  and  C_17
REMARK    2  A    between atoms: C_5  and  N_26
REMARK    3  A    between atoms: N_16  and  C_19
REMARK    4  A    between atoms: C_19  and  C_20
REMARK    5  A    between atoms: C_20  and  C_21
REMARK    6  A    between atoms: C_21  and  N_22
REMARK                            x       y       z     vdW  Elec       q    Type
REMARK                         _______ _______ _______ _____ _____    ______ ____
ROOT
ATOM      1  N   UNL     1      35.823 -23.778 -16.118  0.00  0.00    -0.406 NA
ATOM      2  C   UNL     1      34.494 -23.622 -15.965  0.00  0.00    +0.136 C 
ATOM      3  C   UNL     1      33.852 -23.889 -14.744  0.00  0.00    +0.043 C 
ATOM      4  C   UNL     1      33.715 -23.186 -17.033  0.00  0.00    +0.083 C 
ATOM      5  C   UNL     1      34.639 -24.327 -13.675  0.00  0.00    +0.046 C 
ATOM      6  C   UNL     1      36.019 -24.490 -13.828  0.00  0.00    +0.039 C 
ATOM      7  C   UNL     1      36.577 -24.200 -15.085  0.00  0.00    +0.114 C 
ATOM      8  C   UNL     1      32.463 -23.716 -14.618  0.00  0.00    +0.004 C 
ATOM      9  C   UNL     1      32.335 -23.013 -16.911  0.00  0.00    +0.007 C 
ATOM     10  C   UNL     1      31.706 -23.278 -15.701  0.00  0.00    +0.000 C 
ATOM     11  C   UNL     1      36.836 -24.930 -12.771  0.00  0.00    +0.003 C 
ATOM     12  C   UNL     1      37.952 -24.361 -15.244  0.00  0.00    +0.085 C 
ATOM     13  C   UNL     1      38.206 -25.082 -12.957  0.00  0.00    -0.004 C 
ATOM     14  C   UNL     1      38.765 -24.797 -14.196  0.00  0.00    -0.019 C 
ENDROOT
BRANCH   4  17
ATOM     15  O   UNL     1      33.980 -23.519 -19.339  0.00  0.00    -0.270 OA
ATOM     16  N   UNL     1      35.282 -21.874 -18.354  0.00  0.00    -0.301 N 
ATOM     17  C   UNL     1      34.326 -22.892 -18.325  0.00  0.00    +0.248 C 
ATOM     18  H   UNL     1      35.507 -21.421 -17.509  0.00  0.00    +0.150 HD
BRANCH  16  19
ATOM     19  C   UNL     1      35.960 -21.451 -19.559  0.00  0.00    +0.088 C 
BRANCH  19  20
ATOM     20  C   UNL     1      35.090 -20.478 -20.355  0.00  0.00    -0.002 C 
BRANCH  20  21
ATOM     21  C   UNL     1      35.860 -19.313 -20.976  0.00  0.00    -0.076 C 
BRANCH  21  22
ATOM     22  N   UNL     1      34.969 -18.436 -21.696  0.00  0.00    +0.384 N 
ATOM     23  C   UNL     1      35.275 -18.430 -23.133  0.00  0.00    -0.101 C 
ATOM     24  C   UNL     1      35.034 -17.065 -21.171  0.00  0.00    -0.101 C 
ATOM     25  H   UNL     1      34.022 -18.794 -21.564  0.00  0.00    -0.080 HD
ENDBRANCH  21  22
ENDBRANCH  20  21
ENDBRANCH  19  20
ENDBRANCH  16  19
ENDBRANCH   4  17
BRANCH   5  26
ATOM     26  N   UNL     1      34.031 -24.610 -12.421  0.00  0.00    -0.357 N 
ATOM     27  H   UNL     1      34.047 -25.526 -12.063  0.00  0.00    +0.142 HD
ATOM     28  H   UNL     1      33.593 -23.889 -11.913  0.00  0.00    +0.142 HD
ENDBRANCH   5  26
TORSDOF 6
ENDMDL
MODEL 3
REMARK VINA RESULT:      -9.1      3.962      9.574
REMARK  Name = 150238
REMARK  6 active torsions:
REMARK  status: ('A' for Active; 'I' for Inactive)
REMARK    1  A    between atoms: C_4  and  C_17
REMARK    2  A    between atoms: C_5  and  N_26
REMARK    3  A    between atoms: N_16  and  C_19
REMARK    4  A    between atoms: C_19  and  C_20
REMARK    5  A    between atoms: C_20  and  C_21
REMARK    6  A    between atoms: C_21  and  N_22
REMARK                            x       y       z     vdW  Elec       q    Type
REMARK                         _______ _______ _______ _____ _____    ______ ____
ROOT
ATOM      1  N   UNL     1      32.652 -23.278 -16.852  0.00  0.00    -0.406 NA
ATOM      2  C   UNL     1      33.957 -23.012 -16.646  0.00  0.00    +0.136 C 
ATOM      3  C   UNL     1      34.561 -23.190 -15.390  0.00  0.00    +0.043 C 
ATOM      4  C   UNL     1      34.747 -22.543 -17.692  0.00  0.00    +0.083 C 
ATOM      5  C   UNL     1      33.763 -23.661 -14.344  0.00  0.00    +0.046 C 
ATOM      6  C   UNL     1      32.408 -23.940 -14.552  0.00  0.00    +0.039 C 
ATOM      7  C   UNL     1      31.887 -23.731 -15.841  0.00  0.00    +0.114 C 
ATOM      8  C   UNL     1      35.925 -22.903 -15.210  0.00  0.00    +0.004 C 
ATOM      9  C   UNL     1      36.102 -22.256 -17.516  0.00  0.00    +0.007 C 
ATOM     10  C   UNL     1      36.693 -22.436 -16.272  0.00  0.00    +0.000 C 
ATOM     11  C   UNL     1      31.581 -24.413 -13.518  0.00  0.00    +0.003 C 
ATOM     12  C   UNL     1      30.539 -24.007 -16.055  0.00  0.00    +0.085 C 
ATOM     13  C   UNL     1      30.237 -24.681 -13.759  0.00  0.00    -0.004 C 
ATOM     14  C   UNL     1      29.715 -24.477 -15.030  0.00  0.00    -0.019 C 
ENDROOT
BRANCH   4  17
ATOM     15  O   UNL     1      34.140 -23.271 -19.837  0.00  0.00    -0.270 OA
ATOM     16  N   UNL     1      33.663 -21.068 -19.296  0.00  0.00    -0.301 N 
ATOM     17  C   UNL     1      34.175 -22.338 -19.019  0.00  0.00    +0.248 C 
ATOM     18  H   UNL     1      33.726 -20.377 -18.597  0.00  0.00    +0.150 HD
BRANCH  16  19
ATOM     19  C   UNL     1      33.045 -20.715 -20.554  0.00  0.00    +0.088 C 
BRANCH  19  20
ATOM     20  C   UNL     1      33.651 -19.428 -21.113  0.00  0.00    -0.002 C 
BRANCH  20  21
ATOM     21  C   UNL     1      35.153 -19.508 -21.383  0.00  0.00    -0.076 C 
BRANCH  21  22
ATOM     22  N   UNL     1      35.523 -18.645 -22.479  0.00  0.00    +0.384 N 
ATOM     23  C   UNL     1      35.191 -17.244 -22.187  0.00  0.00    -0.101 C 
ATOM     24  C   UNL     1      34.867 -19.060 -23.726  0.00  0.00    -0.101 C 
ATOM     25  H   UNL     1      36.534 -18.726 -22.596  0.00  0.00    -0.080 HD
ENDBRANCH  21  22
ENDBRANCH  20  21
ENDBRANCH  19  20
ENDBRANCH  16  19
ENDBRANCH   4  17
BRANCH   5  26
ATOM     26  N   UNL     1      34.332 -23.857 -13.056  0.00  0.00    -0.357 N 
ATOM     27  H   UNL     1      34.314 -24.749 -12.641  0.00  0.00    +0.142 HD
ATOM     28  H   UNL     1      34.742 -23.099 -12.579  0.00  0.00    +0.142 HD
ENDBRANCH   5  26
TORSDOF 6
ENDMDL
MODEL 4
REMARK VINA RESULT:      -9.1      7.000     10.026
REMARK  Name = 150238
REMARK  6 active torsions:
REMARK  status: ('A' for Active; 'I' for Inactive)
REMARK    1  A    between atoms: C_4  and  C_17
REMARK    2  A    between atoms: C_5  and  N_26
REMARK    3  A    between atoms: N_16  and  C_19
REMARK    4  A    between atoms: C_19  and  C_20
REMARK    5  A    between atoms: C_20  and  C_21
REMARK    6  A    between atoms: C_21  and  N_22
REMARK                            x       y       z     vdW  Elec       q    Type
REMARK                         _______ _______ _______ _____ _____    ______ ____
ROOT
ATOM      1  N   UNL     1      33.739 -23.217 -16.248  0.00  0.00    -0.406 NA
ATOM      2  C   UNL     1      34.496 -23.430 -15.154  0.00  0.00    +0.136 C 
ATOM      3  C   UNL     1      35.863 -23.106 -15.124  0.00  0.00    +0.043 C 
ATOM      4  C   UNL     1      33.930 -23.987 -14.011  0.00  0.00    +0.083 C 
ATOM      5  C   UNL     1      36.426 -22.548 -16.275  0.00  0.00    +0.046 C 
ATOM      6  C   UNL     1      35.644 -22.324 -17.413  0.00  0.00    +0.039 C 
ATOM      7  C   UNL     1      34.286 -22.679 -17.354  0.00  0.00    +0.114 C 
ATOM      8  C   UNL     1      36.624 -23.341 -13.966  0.00  0.00    +0.004 C 
ATOM      9  C   UNL     1      34.684 -24.222 -12.859  0.00  0.00    +0.007 C 
ATOM     10  C   UNL     1      36.034 -23.899 -12.836  0.00  0.00    +0.000 C 
ATOM     11  C   UNL     1      36.184 -21.765 -18.585  0.00  0.00    +0.003 C 
ATOM     12  C   UNL     1      33.502 -22.459 -18.484  0.00  0.00    +0.085 C 
ATOM     13  C   UNL     1      35.379 -21.556 -19.700  0.00  0.00    -0.004 C 
ATOM     14  C   UNL     1      34.035 -21.904 -19.649  0.00  0.00    -0.019 C 
ENDROOT
BRANCH   4  17
ATOM     15  O   UNL     1      32.170 -25.528 -13.848  0.00  0.00    -0.270 OA
ATOM     16  N   UNL     1      31.598 -23.295 -14.089  0.00  0.00    -0.301 N 
ATOM     17  C   UNL     1      32.515 -24.343 -13.982  0.00  0.00    +0.248 C 
ATOM     18  H   UNL     1      31.946 -22.380 -14.194  0.00  0.00    +0.150 HD
BRANCH  16  19
ATOM     19  C   UNL     1      30.165 -23.483 -14.055  0.00  0.00    +0.088 C 
BRANCH  19  20
ATOM     20  C   UNL     1      29.468 -22.508 -15.003  0.00  0.00    -0.002 C 
BRANCH  20  21
ATOM     21  C   UNL     1      29.787 -22.733 -16.480  0.00  0.00    -0.076 C 
BRANCH  21  22
ATOM     22  N   UNL     1      28.596 -23.091 -17.212  0.00  0.00    +0.384 N 
ATOM     23  C   UNL     1      27.469 -22.219 -16.852  0.00  0.00    -0.101 C 
ATOM     24  C   UNL     1      28.229 -24.494 -16.978  0.00  0.00    -0.101 C 
ATOM     25  H   UNL     1      28.803 -22.966 -18.204  0.00  0.00    -0.080 HD
ENDBRANCH  21  22
ENDBRANCH  20  21
ENDBRANCH  19  20
ENDBRANCH  16  19
ENDBRANCH   4  17
BRANCH   5  26
ATOM     26  N   UNL     1      37.806 -22.205 -16.290  0.00  0.00    -0.357 N 
ATOM     27  H   UNL     1      38.194 -21.694 -15.543  0.00  0.00    +0.142 HD
ATOM     28  H   UNL     1      38.373 -22.478 -17.048  0.00  0.00    +0.142 HD
ENDBRANCH   5  26
TORSDOF 6
ENDMDL
MODEL 5
REMARK VINA RESULT:      -9.0      7.182     10.083
REMARK  Name = 150238
REMARK  6 active torsions:
REMARK  status: ('A' for Active; 'I' for Inactive)
REMARK    1  A    between atoms: C_4  and  C_17
REMARK    2  A    between atoms: C_5  and  N_26
REMARK    3  A    between atoms: N_16  and  C_19
REMARK    4  A    between atoms: C_19  and  C_20
REMARK    5  A    between atoms: C_20  and  C_21
REMARK    6  A    between atoms: C_21  and  N_22
REMARK                            x       y       z     vdW  Elec       q    Type
REMARK                         _______ _______ _______ _____ _____    ______ ____
ROOT
ATOM      1  N   UNL     1      35.225 -23.118 -15.294  0.00  0.00    -0.406 NA
ATOM      2  C   UNL     1      33.976 -23.518 -14.987  0.00  0.00    +0.136 C 
ATOM      3  C   UNL     1      32.923 -23.439 -15.915  0.00  0.00    +0.043 C 
ATOM      4  C   UNL     1      33.696 -24.025 -13.721  0.00  0.00    +0.083 C 
ATOM      5  C   UNL     1      33.210 -22.929 -17.185  0.00  0.00    +0.046 C 
ATOM      6  C   UNL     1      34.505 -22.513 -17.508  0.00  0.00    +0.039 C 
ATOM      7  C   UNL     1      35.496 -22.627 -16.518  0.00  0.00    +0.114 C 
ATOM      8  C   UNL     1      31.631 -23.866 -15.563  0.00  0.00    +0.004 C 
ATOM      9  C   UNL     1      32.413 -24.449 -13.368  0.00  0.00    +0.007 C 
ATOM     10  C   UNL     1      31.378 -24.369 -14.291  0.00  0.00    +0.000 C 
ATOM     11  C   UNL     1      34.823 -21.995 -18.776  0.00  0.00    +0.003 C 
ATOM     12  C   UNL     1      36.788 -22.214 -16.834  0.00  0.00    +0.085 C 
ATOM     13  C   UNL     1      36.122 -21.589 -19.066  0.00  0.00    -0.004 C 
ATOM     14  C   UNL     1      37.106 -21.700 -18.092  0.00  0.00    -0.019 C 
ENDROOT
BRANCH   4  17
ATOM     15  O   UNL     1      34.665 -24.974 -11.809  0.00  0.00    -0.270 OA
ATOM     16  N   UNL     1      35.835 -23.263 -12.847  0.00  0.00    -0.301 N 
ATOM     17  C   UNL     1      34.748 -24.131 -12.716  0.00  0.00    +0.248 C 
ATOM     18  H   UNL     1      35.832 -22.620 -13.592  0.00  0.00    +0.150 HD
BRANCH  16  19
ATOM     19  C   UNL     1      36.966 -23.262 -11.946  0.00  0.00    +0.088 C 
BRANCH  19  20
ATOM     20  C   UNL     1      38.154 -23.997 -12.567  0.00  0.00    -0.002 C 
BRANCH  20  21
ATOM     21  C   UNL     1      38.088 -25.517 -12.435  0.00  0.00    -0.076 C 
BRANCH  21  22
ATOM     22  N   UNL     1      38.508 -26.156 -13.660  0.00  0.00    +0.384 N 
ATOM     23  C   UNL     1      39.829 -25.674 -14.084  0.00  0.00    -0.101 C 
ATOM     24  C   UNL     1      37.532 -25.936 -14.735  0.00  0.00    -0.101 C 
ATOM     25  H   UNL     1      38.569 -27.158 -13.471  0.00  0.00    -0.080 HD
ENDBRANCH  21  22
ENDBRANCH  20  21
ENDBRANCH  19  20
ENDBRANCH  16  19
ENDBRANCH   4  17
BRANCH   5  26
ATOM     26  N   UNL     1      32.176 -22.831 -18.155  0.00  0.00    -0.357 N 
ATOM     27  H   UNL     1      31.297 -22.469 -17.902  0.00  0.00    +0.142 HD
ATOM     28  H   UNL     1      32.339 -23.127 -19.080  0.00  0.00    +0.142 HD
ENDBRANCH   5  26
TORSDOF 6
ENDMDL
MODEL 6
REMARK VINA RESULT:      -9.0      7.175      9.869
REMARK  Name = 150238
REMARK  6 active torsions:
REMARK  status: ('A' for Active; 'I' for Inactive)
REMARK    1  A    between atoms: C_4  and  C_17
REMARK    2  A    between atoms: C_5  and  N_26
REMARK    3  A    between atoms: N_16  and  C_19
REMARK    4  A    between atoms: C_19  and  C_20
REMARK    5  A    between atoms: C_20  and  C_21
REMARK    6  A    between atoms: C_21  and  N_22
REMARK                            x       y       z     vdW  Elec       q    Type
REMARK                         _______ _______ _______ _____ _____    ______ ____
ROOT
ATOM      1  N   UNL     1      34.636 -23.710 -15.168  0.00  0.00    -0.406 NA
ATOM      2  C   UNL     1      35.095 -23.071 -16.262  0.00  0.00    +0.136 C 
ATOM      3  C   UNL     1      34.234 -22.643 -17.287  0.00  0.00    +0.043 C 
ATOM      4  C   UNL     1      36.457 -22.818 -16.403  0.00  0.00    +0.083 C 
ATOM      5  C   UNL     1      32.868 -22.899 -17.140  0.00  0.00    +0.046 C 
ATOM      6  C   UNL     1      32.386 -23.561 -16.007  0.00  0.00    +0.039 C 
ATOM      7  C   UNL     1      33.319 -23.955 -15.032  0.00  0.00    +0.114 C 
ATOM      8  C   UNL     1      34.746 -21.978 -18.414  0.00  0.00    +0.004 C 
ATOM      9  C   UNL     1      36.969 -22.159 -17.522  0.00  0.00    +0.007 C 
ATOM     10  C   UNL     1      36.112 -21.738 -18.531  0.00  0.00    +0.000 C 
ATOM     11  C   UNL     1      31.017 -23.834 -15.833  0.00  0.00    +0.003 C 
ATOM     12  C   UNL     1      32.845 -24.615 -13.901  0.00  0.00    +0.085 C 
ATOM     13  C   UNL     1      30.570 -24.495 -14.694  0.00  0.00    -0.004 C 
ATOM     14  C   UNL     1      31.487 -24.886 -13.726  0.00  0.00    -0.019 C 
ENDROOT
BRANCH   4  17
ATOM     15  O   UNL     1      37.752 -22.446 -14.483  0.00  0.00    -0.270 OA
ATOM     16  N   UNL     1      37.850 -24.560 -15.429  0.00  0.00    -0.301 N 
ATOM     17  C   UNL     1      37.399 -23.239 -15.371  0.00  0.00    +0.248 C 
ATOM     18  H   UNL     1      37.527 -25.132 -16.163  0.00  0.00    +0.150 HD
BRANCH  16  19
ATOM     19  C   UNL     1      38.766 -25.132 -14.468  0.00  0.00    +0.088 C 
BRANCH  19  20
ATOM     20  C   UNL     1      38.002 -25.833 -13.344  0.00  0.00    -0.002 C 
BRANCH  20  21
ATOM     21  C   UNL     1      37.918 -25.029 -12.047  0.00  0.00    -0.076 C 
BRANCH  21  22
ATOM     22  N   UNL     1      36.791 -24.129 -12.074  0.00  0.00    +0.384 N 
ATOM     23  C   UNL     1      37.095 -22.876 -11.370  0.00  0.00    -0.101 C 
ATOM     24  C   UNL     1      35.599 -24.752 -11.482  0.00  0.00    -0.101 C 
ATOM     25  H   UNL     1      36.598 -23.917 -13.054  0.00  0.00    -0.080 HD
ENDBRANCH  21  22
ENDBRANCH  20  21
ENDBRANCH  19  20
ENDBRANCH  16  19
ENDBRANCH   4  17
BRANCH   5  26
ATOM     26  N   UNL     1      31.960 -22.484 -18.153  0.00  0.00    -0.357 N 
ATOM     27  H   UNL     1      32.082 -21.614 -18.596  0.00  0.00    +0.142 HD
ATOM     28  H   UNL     1      31.209 -23.067 -18.409  0.00  0.00    +0.142 HD
ENDBRANCH   5  26
TORSDOF 6
ENDMDL
MODEL 7
REMARK VINA RESULT:      -8.9      3.186      7.667
REMARK  Name = 150238
REMARK  6 active torsions:
REMARK  status: ('A' for Active; 'I' for Inactive)
REMARK    1  A    between atoms: C_4  and  C_17
REMARK    2  A    between atoms: C_5  and  N_26
REMARK    3  A    between atoms: N_16  and  C_19
REMARK    4  A    between atoms: C_19  and  C_20
REMARK    5  A    between atoms: C_20  and  C_21
REMARK    6  A    between atoms: C_21  and  N_22
REMARK                            x       y       z     vdW  Elec       q    Type
REMARK                         _______ _______ _______ _____ _____    ______ ____
ROOT
ATOM      1  N   UNL     1      34.064 -15.309 -22.669  0.00  0.00    -0.406 NA
ATOM      2  C   UNL     1      33.686 -15.036 -23.933  0.00  0.00    +0.136 C 
ATOM      3  C   UNL     1      33.824 -15.977 -24.967  0.00  0.00    +0.043 C 
ATOM      4  C   UNL     1      33.143 -13.794 -24.246  0.00  0.00    +0.083 C 
ATOM      5  C   UNL     1      34.371 -17.223 -24.647  0.00  0.00    +0.046 C 
ATOM      6  C   UNL     1      34.764 -17.512 -23.336  0.00  0.00    +0.039 C 
ATOM      7  C   UNL     1      34.591 -16.511 -22.365  0.00  0.00    +0.114 C 
ATOM      8  C   UNL     1      33.420 -15.660 -26.275  0.00  0.00    +0.004 C 
ATOM      9  C   UNL     1      32.740 -13.476 -25.545  0.00  0.00    +0.007 C 
ATOM     10  C   UNL     1      32.879 -14.411 -26.562  0.00  0.00    +0.000 C 
ATOM     11  C   UNL     1      35.318 -18.756 -22.985  0.00  0.00    +0.003 C 
ATOM     12  C   UNL     1      34.980 -16.792 -21.058  0.00  0.00    +0.085 C 
ATOM     13  C   UNL     1      35.699 -19.011 -21.672  0.00  0.00    -0.004 C 
ATOM     14  C   UNL     1      35.530 -18.027 -20.706  0.00  0.00    -0.019 C 
ENDROOT
BRANCH   4  17
ATOM     15  O   UNL     1      33.627 -11.722 -23.260  0.00  0.00    -0.270 OA
ATOM     16  N   UNL     1      32.042 -13.046 -22.209  0.00  0.00    -0.301 N 
ATOM     17  C   UNL     1      32.975 -12.776 -23.213  0.00  0.00    +0.248 C 
ATOM     18  H   UNL     1      31.561 -13.905 -22.236  0.00  0.00    +0.150 HD
BRANCH  16  19
ATOM     19  C   UNL     1      31.746 -12.129 -21.131  0.00  0.00    +0.088 C 
BRANCH  19  20
ATOM     20  C   UNL     1      31.031 -10.885 -21.659  0.00  0.00    -0.002 C 
BRANCH  20  21
ATOM     21  C   UNL     1      31.690  -9.566 -21.261  0.00  0.00    -0.076 C 
BRANCH  21  22
ATOM     22  N   UNL     1      32.484  -9.042 -22.346  0.00  0.00    +0.384 N 
ATOM     23  C   UNL     1      33.201  -7.826 -21.940  0.00  0.00    -0.101 C 
ATOM     24  C   UNL     1      31.652  -8.755 -23.523  0.00  0.00    -0.101 C 
ATOM     25  H   UNL     1      33.167  -9.759 -22.594  0.00  0.00    -0.080 HD
ENDBRANCH  21  22
ENDBRANCH  20  21
ENDBRANCH  19  20
ENDBRANCH  16  19
ENDBRANCH   4  17
BRANCH   5  26
ATOM     26  N   UNL     1      34.530 -18.206 -25.662  0.00  0.00    -0.357 N 
ATOM     27  H   UNL     1      34.015 -19.044 -25.620  0.00  0.00    +0.142 HD
ATOM     28  H   UNL     1      35.155 -18.048 -26.406  0.00  0.00    +0.142 HD
ENDBRANCH   5  26
TORSDOF 6
ENDMDL
MODEL 8
REMARK VINA RESULT:      -8.9      3.828      7.415
REMARK  Name = 150238
REMARK  6 active torsions:
REMARK  status: ('A' for Active; 'I' for Inactive)
REMARK    1  A    between atoms: C_4  and  C_17
REMARK    2  A    between atoms: C_5  and  N_26
REMARK    3  A    between atoms: N_16  and  C_19
REMARK    4  A    between atoms: C_19  and  C_20
REMARK    5  A    between atoms: C_20  and  C_21
REMARK    6  A    between atoms: C_21  and  N_22
REMARK                            x       y       z     vdW  Elec       q    Type
REMARK                         _______ _______ _______ _____ _____    ______ ____
ROOT
ATOM      1  N   UNL     1      34.160 -13.497 -23.114  0.00  0.00    -0.406 NA
ATOM      2  C   UNL     1      33.890 -13.456 -24.433  0.00  0.00    +0.136 C 
ATOM      3  C   UNL     1      33.758 -14.627 -25.199  0.00  0.00    +0.043 C 
ATOM      4  C   UNL     1      33.734 -12.232 -25.077  0.00  0.00    +0.083 C 
ATOM      5  C   UNL     1      33.915 -15.854 -24.548  0.00  0.00    +0.046 C 
ATOM      6  C   UNL     1      34.196 -15.901 -23.179  0.00  0.00    +0.039 C 
ATOM      7  C   UNL     1      34.312 -14.681 -22.492  0.00  0.00    +0.114 C 
ATOM      8  C   UNL     1      33.475 -14.549 -26.574  0.00  0.00    +0.004 C 
ATOM      9  C   UNL     1      33.453 -12.151 -26.443  0.00  0.00    +0.007 C 
ATOM     10  C   UNL     1      33.324 -13.313 -27.193  0.00  0.00    +0.000 C 
ATOM     11  C   UNL     1      34.360 -17.120 -22.498  0.00  0.00    +0.003 C 
ATOM     12  C   UNL     1      34.591 -14.722 -21.127  0.00  0.00    +0.085 C 
ATOM     13  C   UNL     1      34.639 -17.133 -21.134  0.00  0.00    -0.004 C 
ATOM     14  C   UNL     1      34.754 -15.931 -20.448  0.00  0.00    -0.019 C 
ENDROOT
BRANCH   4  17
ATOM     15  O   UNL     1      34.853 -10.255 -24.494  0.00  0.00    -0.270 OA
ATOM     16  N   UNL     1      32.811 -10.654 -23.471  0.00  0.00    -0.301 N 
ATOM     17  C   UNL     1      33.860 -10.982 -24.334  0.00  0.00    +0.248 C 
ATOM     18  H   UNL     1      32.056 -11.280 -23.394  0.00  0.00    +0.150 HD
BRANCH  16  19
ATOM     19  C   UNL     1      32.778  -9.441 -22.684  0.00  0.00    +0.088 C 
BRANCH  19  20
ATOM     20  C   UNL     1      31.611  -9.469 -21.696  0.00  0.00    -0.002 C 
BRANCH  20  21
ATOM     21  C   UNL     1      30.849 -10.793 -21.663  0.00  0.00    -0.076 C 
BRANCH  21  22
ATOM     22  N   UNL     1      30.939 -11.404 -20.359  0.00  0.00    +0.384 N 
ATOM     23  C   UNL     1      31.258 -10.408 -19.327  0.00  0.00    -0.101 C 
ATOM     24  C   UNL     1      31.946 -12.474 -20.341  0.00  0.00    -0.101 C 
ATOM     25  H   UNL     1      30.025 -11.809 -20.153  0.00  0.00    -0.080 HD
ENDBRANCH  21  22
ENDBRANCH  20  21
ENDBRANCH  19  20
ENDBRANCH  16  19
ENDBRANCH   4  17
BRANCH   5  26
ATOM     26  N   UNL     1      33.790 -17.064 -25.284  0.00  0.00    -0.357 N 
ATOM     27  H   UNL     1      34.174 -17.897 -24.928  0.00  0.00    +0.142 HD
ATOM     28  H   UNL     1      33.321 -17.067 -26.150  0.00  0.00    +0.142 HD
ENDBRANCH   5  26
TORSDOF 6
ENDMDL
MODEL 9
REMARK VINA RESULT:      -8.9      4.026      8.849
REMARK  Name = 150238
REMARK  6 active torsions:
REMARK  status: ('A' for Active; 'I' for Inactive)
REMARK    1  A    between atoms: C_4  and  C_17
REMARK    2  A    between atoms: C_5  and  N_26
REMARK    3  A    between atoms: N_16  and  C_19
REMARK    4  A    between atoms: C_19  and  C_20
REMARK    5  A    between atoms: C_20  and  C_21
REMARK    6  A    between atoms: C_21  and  N_22
REMARK                            x       y       z     vdW  Elec       q    Type
REMARK                         _______ _______ _______ _____ _____    ______ ____
ROOT
ATOM      1  N   UNL     1      34.075 -13.582 -23.024  0.00  0.00    -0.406 NA
ATOM      2  C   UNL     1      33.826 -13.524 -24.347  0.00  0.00    +0.136 C 
ATOM      3  C   UNL     1      33.777 -14.680 -25.144  0.00  0.00    +0.043 C 
ATOM      4  C   UNL     1      33.611 -12.294 -24.963  0.00  0.00    +0.083 C 
ATOM      5  C   UNL     1      33.994 -15.912 -24.520  0.00  0.00    +0.046 C 
ATOM      6  C   UNL     1      34.252 -15.978 -23.147  0.00  0.00    +0.039 C 
ATOM      7  C   UNL     1      34.284 -14.771 -22.428  0.00  0.00    +0.114 C 
ATOM      8  C   UNL     1      33.515 -14.584 -26.521  0.00  0.00    +0.004 C 
ATOM      9  C   UNL     1      33.351 -12.195 -26.332  0.00  0.00    +0.007 C 
ATOM     10  C   UNL     1      33.303 -13.342 -27.113  0.00  0.00    +0.000 C 
ATOM     11  C   UNL     1      34.475 -17.202 -22.493  0.00  0.00    +0.003 C 
ATOM     12  C   UNL     1      34.540 -14.830 -21.060  0.00  0.00    +0.085 C 
ATOM     13  C   UNL     1      34.729 -17.234 -21.125  0.00  0.00    -0.004 C 
ATOM     14  C   UNL     1      34.762 -16.045 -20.408  0.00  0.00    -0.019 C 
ENDROOT
BRANCH   4  17
ATOM     15  O   UNL     1      34.574 -10.246 -24.349  0.00  0.00    -0.270 OA
ATOM     16  N   UNL     1      32.600 -10.844 -23.291  0.00  0.00    -0.301 N 
ATOM     17  C   UNL     1      33.650 -11.059 -24.187  0.00  0.00    +0.248 C 
ATOM     18  H   UNL     1      31.902 -11.534 -23.216  0.00  0.00    +0.150 HD
BRANCH  16  19
ATOM     19  C   UNL     1      32.484  -9.660 -22.469  0.00  0.00    +0.088 C 
BRANCH  19  20
ATOM     20  C   UNL     1      31.442  -8.701 -23.045  0.00  0.00    -0.002 C 
BRANCH  20  21
ATOM     21  C   UNL     1      31.933  -7.263 -23.204  0.00  0.00    -0.076 C 
BRANCH  21  22
ATOM     22  N   UNL     1      31.195  -6.372 -22.342  0.00  0.00    +0.384 N 
ATOM     23  C   UNL     1      31.052  -5.042 -22.951  0.00  0.00    -0.101 C 
ATOM     24  C   UNL     1      31.841  -6.247 -21.028  0.00  0.00    -0.101 C 
ATOM     25  H   UNL     1      30.266  -6.776 -22.214  0.00  0.00    -0.080 HD
ENDBRANCH  21  22
ENDBRANCH  20  21
ENDBRANCH  19  20
ENDBRANCH  16  19
ENDBRANCH   4  17
BRANCH   5  26
ATOM     26  N   UNL     1      33.953 -17.108 -25.287  0.00  0.00    -0.357 N 
ATOM     27  H   UNL     1      33.092 -17.550 -25.463  0.00  0.00    +0.142 HD
ATOM     28  H   UNL     1      34.787 -17.494 -25.641  0.00  0.00    +0.142 HD
ENDBRANCH   5  26
TORSDOF 6
ENDMDL
