MODEL 1
REMARK VINA RESULT:      -6.2      0.000      0.000
REMARK  Name = 439554
REMARK  4 active torsions:
REMARK  status: ('A' for Active; 'I' for Inactive)
REMARK    1  A    between atoms: C_2  and  O_8
REMARK    2  A    between atoms: C_3  and  O_10
REMARK    3  A    between atoms: C_4  and  O_12
REMARK    4  A    between atoms: C_6  and  O_14
REMARK                            x       y       z     vdW  Elec       q    Type
REMARK                         _______ _______ _______ _____ _____    ______ ____
ROOT
ATOM      1  O   UNL     1      38.035 -23.667 -13.227  0.00  0.00    -0.329 OA
ATOM      2  C   UNL     1      35.331 -24.069 -12.330  0.00  0.00    +0.171 C 
ATOM      3  C   UNL     1      35.710 -24.132 -13.814  0.00  0.00    +0.167 C 
ATOM      4  C   UNL     1      36.537 -24.395 -11.450  0.00  0.00    +0.196 C 
ATOM      5  C   UNL     1      36.954 -23.274 -14.086  0.00  0.00    +0.147 C 
ATOM      6  C   UNL     1      37.739 -23.527 -11.834  0.00  0.00    +0.262 C 
ATOM      7  C   UNL     1      37.446 -23.404 -15.522  0.00  0.00    +0.035 C 
ENDROOT
BRANCH   2   8
ATOM      8  O   UNL     1      34.281 -24.993 -12.054  0.00  0.00    -0.379 OA
ATOM      9  H   UNL     1      34.646 -25.776 -11.613  0.00  0.00    +0.211 HD
ENDBRANCH   2   8
BRANCH   3  10
ATOM     10  O   UNL     1      35.961 -25.488 -14.191  0.00  0.00    -0.379 OA
ATOM     11  H   UNL     1      36.292 -25.980 -13.423  0.00  0.00    +0.211 HD
ENDBRANCH   3  10
BRANCH   4  12
ATOM     12  O   UNL     1      36.195 -24.183 -10.083  0.00  0.00    -0.378 OA
ATOM     13  H   UNL     1      35.245 -24.333  -9.961  0.00  0.00    +0.211 HD
ENDBRANCH   4  12
BRANCH   6  14
ATOM     14  O   UNL     1      37.497 -22.168 -11.475  0.00  0.00    -0.358 OA
ATOM     15  H   UNL     1      38.330 -21.751 -11.205  0.00  0.00    +0.213 HD
ENDBRANCH   6  14
TORSDOF 4
ENDMDL
MODEL 2
REMARK VINA RESULT:      -6.1      2.205      4.145
REMARK  Name = 439554
REMARK  4 active torsions:
REMARK  status: ('A' for Active; 'I' for Inactive)
REMARK    1  A    between atoms: C_2  and  O_8
REMARK    2  A    between atoms: C_3  and  O_10
REMARK    3  A    between atoms: C_4  and  O_12
REMARK    4  A    between atoms: C_6  and  O_14
REMARK                            x       y       z     vdW  Elec       q    Type
REMARK                         _______ _______ _______ _____ _____    ______ ____
ROOT
ATOM      1  O   UNL     1      35.837 -24.565 -13.569  0.00  0.00    -0.329 OA
ATOM      2  C   UNL     1      38.207 -25.813 -14.619  0.00  0.00    +0.171 C 
ATOM      3  C   UNL     1      38.232 -24.986 -13.330  0.00  0.00    +0.167 C 
ATOM      4  C   UNL     1      36.810 -26.377 -14.874  0.00  0.00    +0.196 C 
ATOM      5  C   UNL     1      37.109 -23.938 -13.343  0.00  0.00    +0.147 C 
ATOM      6  C   UNL     1      35.757 -25.266 -14.813  0.00  0.00    +0.262 C 
ATOM      7  C   UNL     1      37.011 -23.174 -12.028  0.00  0.00    +0.035 C 
ENDROOT
BRANCH   2   8
ATOM      8  O   UNL     1      39.141 -26.885 -14.530  0.00  0.00    -0.379 OA
ATOM      9  H   UNL     1      39.103 -27.275 -13.643  0.00  0.00    +0.211 HD
ENDBRANCH   2   8
BRANCH   3  10
ATOM     10  O   UNL     1      38.079 -25.848 -12.200  0.00  0.00    -0.379 OA
ATOM     11  H   UNL     1      37.138 -26.046 -12.070  0.00  0.00    +0.211 HD
ENDBRANCH   3  10
BRANCH   4  12
ATOM     12  O   UNL     1      36.781 -27.011 -16.149  0.00  0.00    -0.378 OA
ATOM     13  H   UNL     1      36.467 -26.381 -16.816  0.00  0.00    +0.211 HD
ENDBRANCH   4  12
BRANCH   6  14
ATOM     14  O   UNL     1      35.905 -24.389 -15.929  0.00  0.00    -0.358 OA
ATOM     15  H   UNL     1      35.098 -24.409 -16.465  0.00  0.00    +0.213 HD
ENDBRANCH   6  14
TORSDOF 4
ENDMDL
MODEL 3
REMARK VINA RESULT:      -6.1      1.554      2.893
REMARK  Name = 439554
REMARK  4 active torsions:
REMARK  status: ('A' for Active; 'I' for Inactive)
REMARK    1  A    between atoms: C_2  and  O_8
REMARK    2  A    between atoms: C_3  and  O_10
REMARK    3  A    between atoms: C_4  and  O_12
REMARK    4  A    between atoms: C_6  and  O_14
REMARK                            x       y       z     vdW  Elec       q    Type
REMARK                         _______ _______ _______ _____ _____    ______ ____
ROOT
ATOM      1  O   UNL     1      35.605 -24.662 -13.194  0.00  0.00    -0.329 OA
ATOM      2  C   UNL     1      38.093 -24.134 -11.849  0.00  0.00    +0.171 C 
ATOM      3  C   UNL     1      38.046 -24.742 -13.255  0.00  0.00    +0.167 C 
ATOM      4  C   UNL     1      36.829 -23.324 -11.568  0.00  0.00    +0.196 C 
ATOM      5  C   UNL     1      36.732 -25.510 -13.463  0.00  0.00    +0.147 C 
ATOM      6  C   UNL     1      35.575 -24.156 -11.855  0.00  0.00    +0.262 C 
ATOM      7  C   UNL     1      36.580 -26.027 -14.888  0.00  0.00    +0.035 C 
ENDROOT
BRANCH   2   8
ATOM      8  O   UNL     1      39.234 -23.290 -11.720  0.00  0.00    -0.379 OA
ATOM      9  H   UNL     1      39.322 -23.004 -10.797  0.00  0.00    +0.211 HD
ENDBRANCH   2   8
BRANCH   3  10
ATOM     10  O   UNL     1      38.165 -23.707 -14.233  0.00  0.00    -0.379 OA
ATOM     11  H   UNL     1      37.572 -23.896 -14.977  0.00  0.00    +0.211 HD
ENDBRANCH   3  10
BRANCH   4  12
ATOM     12  O   UNL     1      36.833 -22.898 -10.208  0.00  0.00    -0.378 OA
ATOM     13  H   UNL     1      37.119 -21.972 -10.161  0.00  0.00    +0.211 HD
ENDBRANCH   4  12
BRANCH   6  14
ATOM     14  O   UNL     1      35.450 -25.202 -10.894  0.00  0.00    -0.358 OA
ATOM     15  H   UNL     1      35.111 -24.837 -10.062  0.00  0.00    +0.213 HD
ENDBRANCH   6  14
TORSDOF 4
ENDMDL
MODEL 4
REMARK VINA RESULT:      -5.9      1.534      2.965
REMARK  Name = 439554
REMARK  4 active torsions:
REMARK  status: ('A' for Active; 'I' for Inactive)
REMARK    1  A    between atoms: C_2  and  O_8
REMARK    2  A    between atoms: C_3  and  O_10
REMARK    3  A    between atoms: C_4  and  O_12
REMARK    4  A    between atoms: C_6  and  O_14
REMARK                            x       y       z     vdW  Elec       q    Type
REMARK                         _______ _______ _______ _____ _____    ______ ____
ROOT
ATOM      1  O   UNL     1      37.447 -24.294 -14.323  0.00  0.00    -0.329 OA
ATOM      2  C   UNL     1      36.529 -24.563 -11.609  0.00  0.00    +0.171 C 
ATOM      3  C   UNL     1      37.995 -24.786 -11.993  0.00  0.00    +0.167 C 
ATOM      4  C   UNL     1      35.841 -23.638 -12.613  0.00  0.00    +0.196 C 
ATOM      5  C   UNL     1      38.104 -25.234 -13.459  0.00  0.00    +0.147 C 
ATOM      6  C   UNL     1      36.052 -24.139 -14.045  0.00  0.00    +0.262 C 
ATOM      7  C   UNL     1      39.550 -25.346 -13.926  0.00  0.00    +0.035 C 
ENDROOT
BRANCH   2   8
ATOM      8  O   UNL     1      36.446 -23.992 -10.306  0.00  0.00    -0.379 OA
ATOM      9  H   UNL     1      36.573 -23.033 -10.365  0.00  0.00    +0.211 HD
ENDBRANCH   2   8
BRANCH   3  10
ATOM     10  O   UNL     1      38.734 -23.578 -11.798  0.00  0.00    -0.379 OA
ATOM     11  H   UNL     1      38.175 -22.928 -11.345  0.00  0.00    +0.211 HD
ENDBRANCH   3  10
BRANCH   4  12
ATOM     12  O   UNL     1      34.450 -23.570 -12.317  0.00  0.00    -0.378 OA
ATOM     13  H   UNL     1      34.100 -22.713 -12.605  0.00  0.00    +0.211 HD
ENDBRANCH   4  12
BRANCH   6  14
ATOM     14  O   UNL     1      35.330 -25.351 -14.252  0.00  0.00    -0.358 OA
ATOM     15  H   UNL     1      35.593 -26.003 -13.583  0.00  0.00    +0.213 HD
ENDBRANCH   6  14
TORSDOF 4
ENDMDL
MODEL 5
REMARK VINA RESULT:      -5.9      2.160      2.622
REMARK  Name = 439554
REMARK  4 active torsions:
REMARK  status: ('A' for Active; 'I' for Inactive)
REMARK    1  A    between atoms: C_2  and  O_8
REMARK    2  A    between atoms: C_3  and  O_10
REMARK    3  A    between atoms: C_4  and  O_12
REMARK    4  A    between atoms: C_6  and  O_14
REMARK                            x       y       z     vdW  Elec       q    Type
REMARK                         _______ _______ _______ _____ _____    ______ ____
ROOT
ATOM      1  O   UNL     1      38.840 -26.079 -13.019  0.00  0.00    -0.329 OA
ATOM      2  C   UNL     1      36.626 -24.626 -14.143  0.00  0.00    +0.171 C 
ATOM      3  C   UNL     1      37.857 -24.995 -14.975  0.00  0.00    +0.167 C 
ATOM      4  C   UNL     1      36.454 -25.594 -12.973  0.00  0.00    +0.196 C 
ATOM      5  C   UNL     1      39.092 -25.138 -14.073  0.00  0.00    +0.147 C 
ATOM      6  C   UNL     1      37.751 -25.708 -12.168  0.00  0.00    +0.262 C 
ATOM      7  C   UNL     1      40.316 -25.628 -14.836  0.00  0.00    +0.035 C 
ENDROOT
BRANCH   2   8
ATOM      8  O   UNL     1      35.457 -24.657 -14.958  0.00  0.00    -0.379 OA
ATOM      9  H   UNL     1      35.458 -25.465 -15.495  0.00  0.00    +0.211 HD
ENDBRANCH   2   8
BRANCH   3  10
ATOM     10  O   UNL     1      37.620 -26.221 -15.672  0.00  0.00    -0.379 OA
ATOM     11  H   UNL     1      36.671 -26.422 -15.656  0.00  0.00    +0.211 HD
ENDBRANCH   3  10
BRANCH   4  12
ATOM     12  O   UNL     1      35.395 -25.140 -12.135  0.00  0.00    -0.378 OA
ATOM     13  H   UNL     1      34.729 -25.840 -12.048  0.00  0.00    +0.211 HD
ENDBRANCH   4  12
BRANCH   6  14
ATOM     14  O   UNL     1      38.009 -24.487 -11.477  0.00  0.00    -0.358 OA
ATOM     15  H   UNL     1      37.856 -24.614 -10.528  0.00  0.00    +0.213 HD
ENDBRANCH   6  14
TORSDOF 4
ENDMDL
MODEL 6
REMARK VINA RESULT:      -5.8      1.936      4.004
REMARK  Name = 439554
REMARK  4 active torsions:
REMARK  status: ('A' for Active; 'I' for Inactive)
REMARK    1  A    between atoms: C_2  and  O_8
REMARK    2  A    between atoms: C_3  and  O_10
REMARK    3  A    between atoms: C_4  and  O_12
REMARK    4  A    between atoms: C_6  and  O_14
REMARK                            x       y       z     vdW  Elec       q    Type
REMARK                         _______ _______ _______ _____ _____    ______ ____
ROOT
ATOM      1  O   UNL     1      37.247 -25.670 -12.022  0.00  0.00    -0.329 OA
ATOM      2  C   UNL     1      37.340 -24.140 -14.457  0.00  0.00    +0.171 C 
ATOM      3  C   UNL     1      36.805 -23.548 -13.149  0.00  0.00    +0.167 C 
ATOM      4  C   UNL     1      38.318 -25.280 -14.175  0.00  0.00    +0.196 C 
ATOM      5  C   UNL     1      36.252 -24.659 -12.244  0.00  0.00    +0.147 C 
ATOM      6  C   UNL     1      37.695 -26.306 -13.223  0.00  0.00    +0.262 C 
ATOM      7  C   UNL     1      35.824 -24.137 -10.878  0.00  0.00    +0.035 C 
ENDROOT
BRANCH   2   8
ATOM      8  O   UNL     1      37.998 -23.130 -15.218  0.00  0.00    -0.379 OA
ATOM      9  H   UNL     1      38.892 -22.992 -14.867  0.00  0.00    +0.211 HD
ENDBRANCH   2   8
BRANCH   3  10
ATOM     10  O   UNL     1      37.851 -22.846 -12.473  0.00  0.00    -0.379 OA
ATOM     11  H   UNL     1      38.707 -23.095 -12.857  0.00  0.00    +0.211 HD
ENDBRANCH   3  10
BRANCH   4  12
ATOM     12  O   UNL     1      38.681 -25.906 -15.401  0.00  0.00    -0.378 OA
ATOM     13  H   UNL     1      38.302 -25.408 -16.143  0.00  0.00    +0.211 HD
ENDBRANCH   4  12
BRANCH   6  14
ATOM     14  O   UNL     1      36.640 -27.007 -13.880  0.00  0.00    -0.358 OA
ATOM     15  H   UNL     1      36.788 -27.962 -13.801  0.00  0.00    +0.213 HD
ENDBRANCH   6  14
TORSDOF 4
ENDMDL
MODEL 7
REMARK VINA RESULT:      -5.8      2.355      3.647
REMARK  Name = 439554
REMARK  4 active torsions:
REMARK  status: ('A' for Active; 'I' for Inactive)
REMARK    1  A    between atoms: C_2  and  O_8
REMARK    2  A    between atoms: C_3  and  O_10
REMARK    3  A    between atoms: C_4  and  O_12
REMARK    4  A    between atoms: C_6  and  O_14
REMARK                            x       y       z     vdW  Elec       q    Type
REMARK                         _______ _______ _______ _____ _____    ______ ____
ROOT
ATOM      1  O   UNL     1      37.225 -24.298 -13.280  0.00  0.00    -0.329 OA
ATOM      2  C   UNL     1      36.932 -26.633 -14.935  0.00  0.00    +0.171 C 
ATOM      3  C   UNL     1      35.802 -25.612 -14.769  0.00  0.00    +0.167 C 
ATOM      4  C   UNL     1      38.290 -25.983 -14.680  0.00  0.00    +0.196 C 
ATOM      5  C   UNL     1      35.925 -24.891 -13.418  0.00  0.00    +0.147 C 
ATOM      6  C   UNL     1      38.296 -25.246 -13.337  0.00  0.00    +0.262 C 
ATOM      7  C   UNL     1      34.898 -23.776 -13.259  0.00  0.00    +0.035 C 
ENDROOT
BRANCH   2   8
ATOM      8  O   UNL     1      36.908 -27.178 -16.252  0.00  0.00    -0.379 OA
ATOM      9  H   UNL     1      37.637 -27.810 -16.354  0.00  0.00    +0.211 HD
ENDBRANCH   2   8
BRANCH   3  10
ATOM     10  O   UNL     1      35.850 -24.661 -15.835  0.00  0.00    -0.379 OA
ATOM     11  H   UNL     1      36.461 -24.974 -16.519  0.00  0.00    +0.211 HD
ENDBRANCH   3  10
BRANCH   4  12
ATOM     12  O   UNL     1      39.304 -26.984 -14.694  0.00  0.00    -0.378 OA
ATOM     13  H   UNL     1      39.575 -27.156 -15.610  0.00  0.00    +0.211 HD
ENDBRANCH   4  12
BRANCH   6  14
ATOM     14  O   UNL     1      38.235 -26.183 -12.264  0.00  0.00    -0.358 OA
ATOM     15  H   UNL     1      37.763 -25.787 -11.515  0.00  0.00    +0.213 HD
ENDBRANCH   6  14
TORSDOF 4
ENDMDL
MODEL 8
REMARK VINA RESULT:      -5.8      1.917      2.763
REMARK  Name = 439554
REMARK  4 active torsions:
REMARK  status: ('A' for Active; 'I' for Inactive)
REMARK    1  A    between atoms: C_2  and  O_8
REMARK    2  A    between atoms: C_3  and  O_10
REMARK    3  A    between atoms: C_4  and  O_12
REMARK    4  A    between atoms: C_6  and  O_14
REMARK                            x       y       z     vdW  Elec       q    Type
REMARK                         _______ _______ _______ _____ _____    ______ ____
ROOT
ATOM      1  O   UNL     1      36.121 -23.430 -13.341  0.00  0.00    -0.329 OA
ATOM      2  C   UNL     1      36.893 -26.107 -14.061  0.00  0.00    +0.171 C 
ATOM      3  C   UNL     1      36.785 -24.988 -15.102  0.00  0.00    +0.167 C 
ATOM      4  C   UNL     1      37.160 -25.529 -12.672  0.00  0.00    +0.196 C 
ATOM      5  C   UNL     1      35.776 -23.925 -14.644  0.00  0.00    +0.147 C 
ATOM      6  C   UNL     1      36.136 -24.442 -12.330  0.00  0.00    +0.262 C 
ATOM      7  C   UNL     1      35.726 -22.727 -15.585  0.00  0.00    +0.035 C 
ENDROOT
BRANCH   2   8
ATOM      8  O   UNL     1      37.946 -27.001 -14.411  0.00  0.00    -0.379 OA
ATOM      9  H   UNL     1      38.454 -26.630 -15.150  0.00  0.00    +0.211 HD
ENDBRANCH   2   8
BRANCH   3  10
ATOM     10  O   UNL     1      38.067 -24.388 -15.301  0.00  0.00    -0.379 OA
ATOM     11  H   UNL     1      38.135 -24.067 -16.213  0.00  0.00    +0.211 HD
ENDBRANCH   3  10
BRANCH   4  12
ATOM     12  O   UNL     1      37.106 -26.575 -11.706  0.00  0.00    -0.378 OA
ATOM     13  H   UNL     1      36.497 -27.265 -12.012  0.00  0.00    +0.211 HD
ENDBRANCH   4  12
BRANCH   6  14
ATOM     14  O   UNL     1      34.848 -25.025 -12.141  0.00  0.00    -0.358 OA
ATOM     15  H   UNL     1      34.948 -25.945 -11.850  0.00  0.00    +0.213 HD
ENDBRANCH   6  14
TORSDOF 4
ENDMDL
MODEL 9
REMARK VINA RESULT:      -5.8      1.719      3.300
REMARK  Name = 439554
REMARK  4 active torsions:
REMARK  status: ('A' for Active; 'I' for Inactive)
REMARK    1  A    between atoms: C_2  and  O_8
REMARK    2  A    between atoms: C_3  and  O_10
REMARK    3  A    between atoms: C_4  and  O_12
REMARK    4  A    between atoms: C_6  and  O_14
REMARK                            x       y       z     vdW  Elec       q    Type
REMARK                         _______ _______ _______ _____ _____    ______ ____
ROOT
ATOM      1  O   UNL     1      35.380 -25.380 -14.757  0.00  0.00    -0.329 OA
ATOM      2  C   UNL     1      37.072 -24.518 -12.595  0.00  0.00    +0.171 C 
ATOM      3  C   UNL     1      35.604 -24.091 -12.694  0.00  0.00    +0.167 C 
ATOM      4  C   UNL     1      37.303 -25.836 -13.332  0.00  0.00    +0.196 C 
ATOM      5  C   UNL     1      35.141 -24.097 -14.158  0.00  0.00    +0.147 C 
ATOM      6  C   UNL     1      36.760 -25.761 -14.762  0.00  0.00    +0.262 C 
ATOM      7  C   UNL     1      33.652 -23.803 -14.298  0.00  0.00    +0.035 C 
ENDROOT
BRANCH   2   8
ATOM      8  O   UNL     1      37.447 -24.668 -11.228  0.00  0.00    -0.379 OA
ATOM      9  H   UNL     1      38.229 -24.125 -11.045  0.00  0.00    +0.211 HD
ENDBRANCH   2   8
BRANCH   3  10
ATOM     10  O   UNL     1      34.790 -24.978 -11.922  0.00  0.00    -0.379 OA
ATOM     11  H   UNL     1      34.359 -25.616 -12.512  0.00  0.00    +0.211 HD
ENDBRANCH   3  10
BRANCH   4  12
ATOM     12  O   UNL     1      38.696 -26.130 -13.351  0.00  0.00    -0.378 OA
ATOM     13  H   UNL     1      38.827 -27.057 -13.606  0.00  0.00    +0.211 HD
ENDBRANCH   4  12
BRANCH   6  14
ATOM     14  O   UNL     1      37.555 -24.869 -15.542  0.00  0.00    -0.358 OA
ATOM     15  H   UNL     1      37.393 -23.957 -15.256  0.00  0.00    +0.213 HD
ENDBRANCH   6  14
TORSDOF 4
ENDMDL
