MODEL 1
REMARK VINA RESULT:      -7.9      0.000      0.000
REMARK  Name = 66265
REMARK  5 active torsions:
REMARK  status: ('A' for Active; 'I' for Inactive)
REMARK    1  A    between atoms: C_1  and  C_11
REMARK    2  A    between atoms: C_4  and  C_10
REMARK    3  A    between atoms: C_11  and  C_12
REMARK    4  A    between atoms: C_12  and  N_14
REMARK    5  A    between atoms: N_14  and  C_17
REMARK                            x       y       z     vdW  Elec       q    Type
REMARK                         _______ _______ _______ _____ _____    ______ ____
ROOT
ATOM      1  C   UNL     1      35.064 -19.525 -20.914  0.00  0.00    -0.024 C 
ATOM      2  C   UNL     1      34.259 -20.465 -20.289  0.00  0.00    -0.000 C 
ATOM      3  C   UNL     1      36.437 -19.512 -20.724  0.00  0.00    -0.004 C 
ATOM      4  C   UNL     1      34.843 -21.417 -19.453  0.00  0.00    +0.071 C 
ATOM      5  C   UNL     1      37.021 -20.463 -19.888  0.00  0.00    -0.000 C 
ATOM      6  C   UNL     1      36.224 -21.415 -19.252  0.00  0.00    +0.004 C 
ENDROOT
BRANCH   4  10
ATOM      7  F   UNL     1      33.837 -23.586 -19.492  0.00  0.00    -0.166 F 
ATOM      8  F   UNL     1      34.481 -22.836 -17.562  0.00  0.00    -0.166 F 
ATOM      9  F   UNL     1      32.728 -21.984 -18.527  0.00  0.00    -0.166 F 
ATOM     10  C   UNL     1      33.992 -22.435 -18.773  0.00  0.00    +0.419 C 
ENDBRANCH   4  10
BRANCH   1  11
ATOM     11  C   UNL     1      34.433 -18.497 -21.821  0.00  0.00    +0.005 C 
BRANCH  11  12
ATOM     12  C   UNL     1      35.155 -17.137 -21.807  0.00  0.00    -0.058 C 
ATOM     13  C   UNL     1      34.255 -16.000 -21.325  0.00  0.00    -0.023 C 
BRANCH  12  14
ATOM     14  N   UNL     1      35.618 -16.815 -23.161  0.00  0.00    +0.385 N 
ATOM     15  H   UNL     1      36.622 -16.988 -23.221  0.00  0.00    -0.084 HD
ATOM     16  H   UNL     1      35.417 -15.834 -23.352  0.00  0.00    -0.084 HD
BRANCH  14  17
ATOM     17  C   UNL     1      34.932 -17.634 -24.144  0.00  0.00    -0.082 C 
ATOM     18  C   UNL     1      34.251 -16.775 -25.197  0.00  0.00    -0.026 C 
ENDBRANCH  14  17
ENDBRANCH  12  14
ENDBRANCH  11  12
ENDBRANCH   1  11
TORSDOF 5
ENDMDL
MODEL 2
REMARK VINA RESULT:      -7.9      1.613      2.347
REMARK  Name = 66265
REMARK  5 active torsions:
REMARK  status: ('A' for Active; 'I' for Inactive)
REMARK    1  A    between atoms: C_1  and  C_11
REMARK    2  A    between atoms: C_4  and  C_10
REMARK    3  A    between atoms: C_11  and  C_12
REMARK    4  A    between atoms: C_12  and  N_14
REMARK    5  A    between atoms: N_14  and  C_17
REMARK                            x       y       z     vdW  Elec       q    Type
REMARK                         _______ _______ _______ _____ _____    ______ ____
ROOT
ATOM      1  C   UNL     1      34.380 -19.476 -21.605  0.00  0.00    -0.024 C 
ATOM      2  C   UNL     1      35.468 -19.988 -20.915  0.00  0.00    -0.000 C 
ATOM      3  C   UNL     1      33.081 -19.790 -21.236  0.00  0.00    -0.004 C 
ATOM      4  C   UNL     1      35.251 -20.836 -19.829  0.00  0.00    +0.071 C 
ATOM      5  C   UNL     1      32.864 -20.638 -20.151  0.00  0.00    -0.000 C 
ATOM      6  C   UNL     1      33.949 -21.161 -19.447  0.00  0.00    +0.004 C 
ENDROOT
BRANCH   4  10
ATOM      7  F   UNL     1      37.366 -21.953 -19.876  0.00  0.00    -0.166 F 
ATOM      8  F   UNL     1      37.075 -20.465 -18.325  0.00  0.00    -0.166 F 
ATOM      9  F   UNL     1      36.045 -22.377 -18.202  0.00  0.00    -0.166 F 
ATOM     10  C   UNL     1      36.411 -21.394 -19.076  0.00  0.00    +0.419 C 
ENDBRANCH   4  10
BRANCH   1  11
ATOM     11  C   UNL     1      34.614 -18.557 -22.779  0.00  0.00    +0.005 C 
BRANCH  11  12
ATOM     12  C   UNL     1      35.374 -17.269 -22.413  0.00  0.00    -0.058 C 
ATOM     13  C   UNL     1      34.676 -16.468 -21.314  0.00  0.00    -0.023 C 
BRANCH  12  14
ATOM     14  N   UNL     1      35.493 -16.416 -23.600  0.00  0.00    +0.385 N 
ATOM     15  H   UNL     1      36.479 -16.314 -23.842  0.00  0.00    -0.084 HD
ATOM     16  H   UNL     1      35.084 -15.505 -23.392  0.00  0.00    -0.084 HD
BRANCH  14  17
ATOM     17  C   UNL     1      34.783 -17.003 -24.724  0.00  0.00    -0.082 C 
ATOM     18  C   UNL     1      33.877 -15.983 -25.394  0.00  0.00    -0.026 C 
ENDBRANCH  14  17
ENDBRANCH  12  14
ENDBRANCH  11  12
ENDBRANCH   1  11
TORSDOF 5
ENDMDL
MODEL 3
REMARK VINA RESULT:      -7.8      1.542      2.974
REMARK  Name = 66265
REMARK  5 active torsions:
REMARK  status: ('A' for Active; 'I' for Inactive)
REMARK    1  A    between atoms: C_1  and  C_11
REMARK    2  A    between atoms: C_4  and  C_10
REMARK    3  A    between atoms: C_11  and  C_12
REMARK    4  A    between atoms: C_12  and  N_14
REMARK    5  A    between atoms: N_14  and  C_17
REMARK                            x       y       z     vdW  Elec       q    Type
REMARK                         _______ _______ _______ _____ _____    ______ ____
ROOT
ATOM      1  C   UNL     1      35.077 -19.157 -21.884  0.00  0.00    -0.024 C 
ATOM      2  C   UNL     1      35.919 -19.853 -21.030  0.00  0.00    -0.000 C 
ATOM      3  C   UNL     1      33.699 -19.248 -21.769  0.00  0.00    -0.004 C 
ATOM      4  C   UNL     1      35.367 -20.659 -20.034  0.00  0.00    +0.071 C 
ATOM      5  C   UNL     1      33.147 -20.053 -20.774  0.00  0.00    -0.000 C 
ATOM      6  C   UNL     1      33.981 -20.759 -19.906  0.00  0.00    +0.004 C 
ENDROOT
BRANCH   4  10
ATOM      7  F   UNL     1      36.833 -20.633 -18.145  0.00  0.00    -0.166 F 
ATOM      8  F   UNL     1      35.617 -22.407 -18.420  0.00  0.00    -0.166 F 
ATOM      9  F   UNL     1      37.293 -22.024 -19.752  0.00  0.00    -0.166 F 
ATOM     10  C   UNL     1      36.257 -21.414 -19.106  0.00  0.00    +0.419 C 
ENDBRANCH   4  10
BRANCH   1  11
ATOM     11  C   UNL     1      35.674 -18.284 -22.961  0.00  0.00    +0.005 C 
BRANCH  11  12
ATOM     12  C   UNL     1      34.680 -17.268 -23.552  0.00  0.00    -0.058 C 
ATOM     13  C   UNL     1      34.704 -17.245 -25.080  0.00  0.00    -0.023 C 
BRANCH  12  14
ATOM     14  N   UNL     1      35.006 -15.924 -23.066  0.00  0.00    +0.385 N 
ATOM     15  H   UNL     1      35.034 -15.279 -23.856  0.00  0.00    -0.084 HD
ATOM     16  H   UNL     1      35.915 -15.953 -22.603  0.00  0.00    -0.084 HD
BRANCH  14  17
ATOM     17  C   UNL     1      34.009 -15.469 -22.112  0.00  0.00    -0.082 C 
ATOM     18  C   UNL     1      34.523 -15.577 -20.686  0.00  0.00    -0.026 C 
ENDBRANCH  14  17
ENDBRANCH  12  14
ENDBRANCH  11  12
ENDBRANCH   1  11
TORSDOF 5
ENDMDL
MODEL 4
REMARK VINA RESULT:      -7.8      4.677      7.124
REMARK  Name = 66265
REMARK  5 active torsions:
REMARK  status: ('A' for Active; 'I' for Inactive)
REMARK    1  A    between atoms: C_1  and  C_11
REMARK    2  A    between atoms: C_4  and  C_10
REMARK    3  A    between atoms: C_11  and  C_12
REMARK    4  A    between atoms: C_12  and  N_14
REMARK    5  A    between atoms: N_14  and  C_17
REMARK                            x       y       z     vdW  Elec       q    Type
REMARK                         _______ _______ _______ _____ _____    ______ ____
ROOT
ATOM      1  C   UNL     1      34.916 -17.244 -22.755  0.00  0.00    -0.024 C 
ATOM      2  C   UNL     1      34.343 -15.985 -22.839  0.00  0.00    -0.000 C 
ATOM      3  C   UNL     1      35.084 -18.035 -23.881  0.00  0.00    -0.004 C 
ATOM      4  C   UNL     1      33.929 -15.503 -24.081  0.00  0.00    +0.071 C 
ATOM      5  C   UNL     1      34.670 -17.554 -25.122  0.00  0.00    -0.000 C 
ATOM      6  C   UNL     1      34.092 -16.289 -25.223  0.00  0.00    +0.004 C 
ENDROOT
BRANCH   4  10
ATOM      7  F   UNL     1      32.344 -13.913 -23.256  0.00  0.00    -0.166 F 
ATOM      8  F   UNL     1      34.206 -13.128 -24.040  0.00  0.00    -0.166 F 
ATOM      9  F   UNL     1      32.715 -13.940 -25.398  0.00  0.00    -0.166 F 
ATOM     10  C   UNL     1      33.312 -14.150 -24.189  0.00  0.00    +0.419 C 
ENDBRANCH   4  10
BRANCH   1  11
ATOM     11  C   UNL     1      35.365 -17.764 -21.411  0.00  0.00    +0.005 C 
BRANCH  11  12
ATOM     12  C   UNL     1      35.190 -19.286 -21.249  0.00  0.00    -0.058 C 
ATOM     13  C   UNL     1      33.767 -19.673 -20.849  0.00  0.00    -0.023 C 
BRANCH  12  14
ATOM     14  N   UNL     1      36.109 -19.776 -20.217  0.00  0.00    +0.385 N 
ATOM     15  H   UNL     1      36.006 -19.206 -19.378  0.00  0.00    -0.084 HD
ATOM     16  H   UNL     1      37.064 -19.714 -20.571  0.00  0.00    -0.084 HD
BRANCH  14  17
ATOM     17  C   UNL     1      35.821 -21.162 -19.892  0.00  0.00    -0.082 C 
ATOM     18  C   UNL     1      36.514 -21.581 -18.606  0.00  0.00    -0.026 C 
ENDBRANCH  14  17
ENDBRANCH  12  14
ENDBRANCH  11  12
ENDBRANCH   1  11
TORSDOF 5
ENDMDL
MODEL 5
REMARK VINA RESULT:      -7.6      4.249      6.442
REMARK  Name = 66265
REMARK  5 active torsions:
REMARK  status: ('A' for Active; 'I' for Inactive)
REMARK    1  A    between atoms: C_1  and  C_11
REMARK    2  A    between atoms: C_4  and  C_10
REMARK    3  A    between atoms: C_11  and  C_12
REMARK    4  A    between atoms: C_12  and  N_14
REMARK    5  A    between atoms: N_14  and  C_17
REMARK                            x       y       z     vdW  Elec       q    Type
REMARK                         _______ _______ _______ _____ _____    ______ ____
ROOT
ATOM      1  C   UNL     1      35.239 -18.419 -22.021  0.00  0.00    -0.024 C 
ATOM      2  C   UNL     1      34.890 -17.126 -21.665  0.00  0.00    -0.000 C 
ATOM      3  C   UNL     1      35.243 -18.825 -23.346  0.00  0.00    -0.004 C 
ATOM      4  C   UNL     1      34.537 -16.215 -22.661  0.00  0.00    +0.071 C 
ATOM      5  C   UNL     1      34.891 -17.915 -24.342  0.00  0.00    -0.000 C 
ATOM      6  C   UNL     1      34.538 -16.610 -24.000  0.00  0.00    +0.004 C 
ENDROOT
BRANCH   4  10
ATOM      7  F   UNL     1      32.813 -14.624 -22.195  0.00  0.00    -0.166 F 
ATOM      8  F   UNL     1      34.670 -14.411 -21.095  0.00  0.00    -0.166 F 
ATOM      9  F   UNL     1      34.596 -13.901 -23.209  0.00  0.00    -0.166 F 
ATOM     10  C   UNL     1      34.161 -14.819 -22.296  0.00  0.00    +0.419 C 
ENDBRANCH   4  10
BRANCH   1  11
ATOM     11  C   UNL     1      35.621 -19.405 -20.944  0.00  0.00    +0.005 C 
BRANCH  11  12
ATOM     12  C   UNL     1      34.571 -20.508 -20.716  0.00  0.00    -0.058 C 
ATOM     13  C   UNL     1      33.161 -19.947 -20.537  0.00  0.00    -0.023 C 
BRANCH  12  14
ATOM     14  N   UNL     1      34.919 -21.274 -19.515  0.00  0.00    +0.385 N 
ATOM     15  H   UNL     1      34.567 -22.227 -19.612  0.00  0.00    -0.084 HD
ATOM     16  H   UNL     1      34.497 -20.823 -18.704  0.00  0.00    -0.084 HD
BRANCH  14  17
ATOM     17  C   UNL     1      36.360 -21.313 -19.333  0.00  0.00    -0.082 C 
ATOM     18  C   UNL     1      36.723 -21.705 -17.910  0.00  0.00    -0.026 C 
ENDBRANCH  14  17
ENDBRANCH  12  14
ENDBRANCH  11  12
ENDBRANCH   1  11
TORSDOF 5
ENDMDL
MODEL 6
REMARK VINA RESULT:      -7.6      3.963      6.350
REMARK  Name = 66265
REMARK  5 active torsions:
REMARK  status: ('A' for Active; 'I' for Inactive)
REMARK    1  A    between atoms: C_1  and  C_11
REMARK    2  A    between atoms: C_4  and  C_10
REMARK    3  A    between atoms: C_11  and  C_12
REMARK    4  A    between atoms: C_12  and  N_14
REMARK    5  A    between atoms: N_14  and  C_17
REMARK                            x       y       z     vdW  Elec       q    Type
REMARK                         _______ _______ _______ _____ _____    ______ ____
ROOT
ATOM      1  C   UNL     1      34.591 -21.184 -19.804  0.00  0.00    -0.024 C 
ATOM      2  C   UNL     1      35.504 -20.397 -20.489  0.00  0.00    -0.000 C 
ATOM      3  C   UNL     1      33.233 -20.908 -19.839  0.00  0.00    -0.004 C 
ATOM      4  C   UNL     1      35.047 -19.307 -21.229  0.00  0.00    +0.071 C 
ATOM      5  C   UNL     1      32.776 -19.818 -20.578  0.00  0.00    -0.000 C 
ATOM      6  C   UNL     1      33.682 -19.017 -21.273  0.00  0.00    +0.004 C 
ENDROOT
BRANCH   4  10
ATOM      7  F   UNL     1      37.314 -18.637 -21.593  0.00  0.00    -0.166 F 
ATOM      8  F   UNL     1      36.006 -18.662 -23.323  0.00  0.00    -0.166 F 
ATOM      9  F   UNL     1      35.772 -17.118 -21.809  0.00  0.00    -0.166 F 
ATOM     10  C   UNL     1      36.015 -18.451 -21.973  0.00  0.00    +0.419 C 
ENDBRANCH   4  10
BRANCH   1  11
ATOM     11  C   UNL     1      35.085 -22.365 -19.004  0.00  0.00    +0.005 C 
BRANCH  11  12
ATOM     12  C   UNL     1      35.373 -22.033 -17.528  0.00  0.00    -0.058 C 
ATOM     13  C   UNL     1      36.868 -22.006 -17.213  0.00  0.00    -0.023 C 
BRANCH  12  14
ATOM     14  N   UNL     1      34.739 -23.038 -16.668  0.00  0.00    +0.385 N 
ATOM     15  H   UNL     1      34.553 -22.627 -15.753  0.00  0.00    -0.084 HD
ATOM     16  H   UNL     1      35.368 -23.836 -16.576  0.00  0.00    -0.084 HD
BRANCH  14  17
ATOM     17  C   UNL     1      33.488 -23.493 -17.250  0.00  0.00    -0.082 C 
ATOM     18  C   UNL     1      32.322 -23.249 -16.307  0.00  0.00    -0.026 C 
ENDBRANCH  14  17
ENDBRANCH  12  14
ENDBRANCH  11  12
ENDBRANCH   1  11
TORSDOF 5
ENDMDL
MODEL 7
REMARK VINA RESULT:      -7.6      4.043      6.293
REMARK  Name = 66265
REMARK  5 active torsions:
REMARK  status: ('A' for Active; 'I' for Inactive)
REMARK    1  A    between atoms: C_1  and  C_11
REMARK    2  A    between atoms: C_4  and  C_10
REMARK    3  A    between atoms: C_11  and  C_12
REMARK    4  A    between atoms: C_12  and  N_14
REMARK    5  A    between atoms: N_14  and  C_17
REMARK                            x       y       z     vdW  Elec       q    Type
REMARK                         _______ _______ _______ _____ _____    ______ ____
ROOT
ATOM      1  C   UNL     1      33.896 -19.166 -21.572  0.00  0.00    -0.024 C 
ATOM      2  C   UNL     1      33.738 -17.891 -21.053  0.00  0.00    -0.000 C 
ATOM      3  C   UNL     1      34.768 -19.414 -22.621  0.00  0.00    -0.004 C 
ATOM      4  C   UNL     1      34.472 -16.836 -21.595  0.00  0.00    +0.071 C 
ATOM      5  C   UNL     1      35.502 -18.360 -23.163  0.00  0.00    -0.000 C 
ATOM      6  C   UNL     1      35.354 -17.071 -22.651  0.00  0.00    +0.004 C 
ENDROOT
BRANCH   4  10
ATOM      7  F   UNL     1      34.966 -15.263 -19.862  0.00  0.00    -0.166 F 
ATOM      8  F   UNL     1      34.789 -14.482 -21.877  0.00  0.00    -0.166 F 
ATOM      9  F   UNL     1      33.012 -15.133 -20.806  0.00  0.00    -0.166 F 
ATOM     10  C   UNL     1      34.316 -15.458 -21.047  0.00  0.00    +0.419 C 
ENDBRANCH   4  10
BRANCH   1  11
ATOM     11  C   UNL     1      33.102 -20.308 -20.985  0.00  0.00    +0.005 C 
BRANCH  11  12
ATOM     12  C   UNL     1      33.662 -20.823 -19.646  0.00  0.00    -0.058 C 
ATOM     13  C   UNL     1      35.129 -21.242 -19.746  0.00  0.00    -0.023 C 
BRANCH  12  14
ATOM     14  N   UNL     1      32.880 -21.982 -19.202  0.00  0.00    +0.385 N 
ATOM     15  H   UNL     1      32.563 -22.504 -20.019  0.00  0.00    -0.084 HD
ATOM     16  H   UNL     1      32.081 -21.651 -18.662  0.00  0.00    -0.084 HD
BRANCH  14  17
ATOM     17  C   UNL     1      33.686 -22.851 -18.362  0.00  0.00    -0.082 C 
ATOM     18  C   UNL     1      32.943 -23.229 -17.091  0.00  0.00    -0.026 C 
ENDBRANCH  14  17
ENDBRANCH  12  14
ENDBRANCH  11  12
ENDBRANCH   1  11
TORSDOF 5
ENDMDL
MODEL 8
REMARK VINA RESULT:      -7.5      4.201      6.450
REMARK  Name = 66265
REMARK  5 active torsions:
REMARK  status: ('A' for Active; 'I' for Inactive)
REMARK    1  A    between atoms: C_1  and  C_11
REMARK    2  A    between atoms: C_4  and  C_10
REMARK    3  A    between atoms: C_11  and  C_12
REMARK    4  A    between atoms: C_12  and  N_14
REMARK    5  A    between atoms: N_14  and  C_17
REMARK                            x       y       z     vdW  Elec       q    Type
REMARK                         _______ _______ _______ _____ _____    ______ ____
ROOT
ATOM      1  C   UNL     1      35.157 -17.883 -21.576  0.00  0.00    -0.024 C 
ATOM      2  C   UNL     1      34.932 -17.962 -22.942  0.00  0.00    -0.000 C 
ATOM      3  C   UNL     1      34.956 -16.701 -20.881  0.00  0.00    -0.004 C 
ATOM      4  C   UNL     1      34.492 -16.830 -23.629  0.00  0.00    +0.071 C 
ATOM      5  C   UNL     1      34.518 -15.569 -21.567  0.00  0.00    -0.000 C 
ATOM      6  C   UNL     1      34.286 -15.634 -22.941  0.00  0.00    +0.004 C 
ENDROOT
BRANCH   4  10
ATOM      7  F   UNL     1      33.719 -18.090 -25.509  0.00  0.00    -0.166 F 
ATOM      8  F   UNL     1      33.370 -15.950 -25.549  0.00  0.00    -0.166 F 
ATOM      9  F   UNL     1      35.382 -16.727 -25.831  0.00  0.00    -0.166 F 
ATOM     10  C   UNL     1      34.244 -16.899 -25.097  0.00  0.00    +0.419 C 
ENDBRANCH   4  10
BRANCH   1  11
ATOM     11  C   UNL     1      35.630 -19.108 -20.832  0.00  0.00    +0.005 C 
BRANCH  11  12
ATOM     12  C   UNL     1      34.598 -20.250 -20.805  0.00  0.00    -0.058 C 
ATOM     13  C   UNL     1      33.164 -19.741 -20.661  0.00  0.00    -0.023 C 
BRANCH  12  14
ATOM     14  N   UNL     1      34.886 -21.143 -19.677  0.00  0.00    +0.385 N 
ATOM     15  H   UNL     1      34.470 -22.057 -19.860  0.00  0.00    -0.084 HD
ATOM     16  H   UNL     1      34.490 -20.738 -18.829  0.00  0.00    -0.084 HD
BRANCH  14  17
ATOM     17  C   UNL     1      36.319 -21.296 -19.499  0.00  0.00    -0.082 C 
ATOM     18  C   UNL     1      36.655 -21.699 -18.073  0.00  0.00    -0.026 C 
ENDBRANCH  14  17
ENDBRANCH  12  14
ENDBRANCH  11  12
ENDBRANCH   1  11
TORSDOF 5
ENDMDL
MODEL 9
REMARK VINA RESULT:      -7.5      3.899      5.721
REMARK  Name = 66265
REMARK  5 active torsions:
REMARK  status: ('A' for Active; 'I' for Inactive)
REMARK    1  A    between atoms: C_1  and  C_11
REMARK    2  A    between atoms: C_4  and  C_10
REMARK    3  A    between atoms: C_11  and  C_12
REMARK    4  A    between atoms: C_12  and  N_14
REMARK    5  A    between atoms: N_14  and  C_17
REMARK                            x       y       z     vdW  Elec       q    Type
REMARK                         _______ _______ _______ _____ _____    ______ ____
ROOT
ATOM      1  C   UNL     1      33.883 -15.649 -24.255  0.00  0.00    -0.024 C 
ATOM      2  C   UNL     1      34.211 -15.994 -22.953  0.00  0.00    -0.000 C 
ATOM      3  C   UNL     1      34.096 -16.525 -25.308  0.00  0.00    -0.004 C 
ATOM      4  C   UNL     1      34.766 -17.249 -22.698  0.00  0.00    +0.071 C 
ATOM      5  C   UNL     1      34.651 -17.779 -25.053  0.00  0.00    -0.000 C 
ATOM      6  C   UNL     1      34.986 -18.140 -23.748  0.00  0.00    +0.004 C 
ENDROOT
BRANCH   4  10
ATOM      7  F   UNL     1      35.155 -16.584 -20.433  0.00  0.00    -0.166 F 
ATOM      8  F   UNL     1      34.257 -18.533 -20.745  0.00  0.00    -0.166 F 
ATOM      9  F   UNL     1      36.356 -18.217 -21.219  0.00  0.00    -0.166 F 
ATOM     10  C   UNL     1      35.124 -17.636 -21.303  0.00  0.00    +0.419 C 
ENDBRANCH   4  10
BRANCH   1  11
ATOM     11  C   UNL     1      33.281 -14.293 -24.531  0.00  0.00    +0.005 C 
BRANCH  11  12
ATOM     12  C   UNL     1      33.649 -13.230 -23.481  0.00  0.00    -0.058 C 
ATOM     13  C   UNL     1      32.435 -12.739 -22.692  0.00  0.00    -0.023 C 
BRANCH  12  14
ATOM     14  N   UNL     1      34.263 -12.076 -24.147  0.00  0.00    +0.385 N 
ATOM     15  H   UNL     1      34.265 -12.233 -25.155  0.00  0.00    -0.084 HD
ATOM     16  H   UNL     1      35.218 -11.969 -23.804  0.00  0.00    -0.084 HD
BRANCH  14  17
ATOM     17  C   UNL     1      33.521 -10.862 -23.854  0.00  0.00    -0.082 C 
ATOM     18  C   UNL     1      34.377  -9.627 -24.084  0.00  0.00    -0.026 C 
ENDBRANCH  14  17
ENDBRANCH  12  14
ENDBRANCH  11  12
ENDBRANCH   1  11
TORSDOF 5
ENDMDL
