MODEL 1
REMARK VINA RESULT:      -7.6      0.000      0.000
REMARK  Name = 21319
REMARK  5 active torsions:
REMARK  status: ('A' for Active; 'I' for Inactive)
REMARK    1  A    between atoms: N_2  and  CA_11
REMARK    2  A    between atoms: C_3  and  C_21
REMARK    3  A    between atoms: CA_10  and  C_16
REMARK    4  A    between atoms: C_16  and  O_17
REMARK    5  A    between atoms: C_22  and  C_27
REMARK                            x       y       z     vdW  Elec       q    Type
REMARK                         _______ _______ _______ _____ _____    ______ ____
ROOT
ATOM      1  O   UNL     1      34.881  -8.626 -23.630  0.00  0.00    -0.270 OA
ATOM      2  N   UNL     1      33.297  -9.973 -24.625  0.00  0.00    -0.293 N 
ATOM      3  C   UNL     1      33.700  -8.847 -23.897  0.00  0.00    +0.251 C 
ATOM      4  H   UNL     1      32.338 -10.098 -24.809  0.00  0.00    +0.150 HD
ENDROOT
BRANCH   2  11
ATOM      5  S   UNL     1      33.746 -12.235 -22.598  0.00  0.00    -0.118 S 
ATOM      6  O   UNL     1      32.868 -12.166 -26.915  0.00  0.00    -0.273 OA
ATOM      7  N   UNL     1      34.019 -13.038 -25.049  0.00  0.00    -0.260 N 
ATOM      8  C   UNL     1      34.687 -12.083 -24.160  0.00  0.00    +0.151 C 
ATOM      9  C   UNL     1      33.393 -14.032 -22.940  0.00  0.00    +0.068 C 
ATOM     10  CA  UNL     1      33.194 -14.079 -24.470  0.00  0.00    +0.184 C 
ATOM     11  CA  UNL     1      34.247 -10.976 -25.128  0.00  0.00    +0.178 C 
ATOM     12  C   UNL     1      33.592 -12.104 -25.948  0.00  0.00    +0.247 C 
ATOM     13  C   UNL     1      34.584 -14.852 -22.427  0.00  0.00    +0.013 C 
ATOM     14  C   UNL     1      32.119 -14.438 -22.198  0.00  0.00    +0.013 C 
BRANCH  10  16
ATOM     15  OXT UNL     1      33.883 -16.392 -24.533  0.00  0.00    -0.248 OA
ATOM     16  C   UNL     1      33.581 -15.366 -25.125  0.00  0.00    +0.333 C 
BRANCH  16  17
ATOM     17  O   UNL     1      33.556 -15.245 -26.475  0.00  0.00    -0.479 OA
ATOM     18  H   UNL     1      33.304 -14.433 -26.867  0.00  0.00    +0.295 HD
ENDBRANCH  16  17
ENDBRANCH  10  16
ENDBRANCH   2  11
BRANCH   3  21
ATOM     19  O   UNL     1      31.295  -6.183 -23.477  0.00  0.00    -0.358 OA
ATOM     20  N   UNL     1      30.938  -6.961 -22.383  0.00  0.00    -0.077 NA
ATOM     21  C   UNL     1      32.636  -7.920 -23.489  0.00  0.00    +0.107 A 
ATOM     22  C   UNL     1      31.768  -8.008 -22.418  0.00  0.00    +0.130 A 
ATOM     23  C   UNL     1      32.323  -6.778 -24.134  0.00  0.00    +0.159 A 
ATOM     24  C   UNL     1      32.825  -6.079 -25.325  0.00  0.00    +0.076 C 
BRANCH  22  27
ATOM     25 CL   UNL     1      33.058  -7.417 -19.687  0.00  0.00    -0.082 Cl
ATOM     26  F   UNL     1      30.487 -10.405 -22.953  0.00  0.00    -0.204 F 
ATOM     27  C   UNL     1      31.682  -9.036 -21.414  0.00  0.00    +0.059 C 
ATOM     28  C   UNL     1      32.234  -8.868 -20.145  0.00  0.00    +0.061 C 
ATOM     29  C   UNL     1      31.026 -10.224 -21.737  0.00  0.00    +0.142 C 
ATOM     30  C   UNL     1      32.130  -9.887 -19.197  0.00  0.00    +0.012 C 
ATOM     31  C   UNL     1      30.922 -11.244 -20.790  0.00  0.00    +0.030 C 
ATOM     32  C   UNL     1      31.473 -11.075 -19.521  0.00  0.00    +0.003 C 
ENDBRANCH  22  27
ENDBRANCH   3  21
TORSDOF 5
ENDMDL
MODEL 2
REMARK VINA RESULT:      -7.5     11.332     14.776
REMARK  Name = 21319
REMARK  5 active torsions:
REMARK  status: ('A' for Active; 'I' for Inactive)
REMARK    1  A    between atoms: N_2  and  CA_11
REMARK    2  A    between atoms: C_3  and  C_21
REMARK    3  A    between atoms: CA_10  and  C_16
REMARK    4  A    between atoms: C_16  and  O_17
REMARK    5  A    between atoms: C_22  and  C_27
REMARK                            x       y       z     vdW  Elec       q    Type
REMARK                         _______ _______ _______ _____ _____    ______ ____
ROOT
ATOM      1  O   UNL     1      36.541 -20.947 -17.638  0.00  0.00    -0.270 OA
ATOM      2  N   UNL     1      35.760 -22.576 -16.206  0.00  0.00    -0.293 N 
ATOM      3  C   UNL     1      35.696 -21.800 -17.370  0.00  0.00    +0.251 C 
ATOM      4  H   UNL     1      35.055 -23.244 -16.045  0.00  0.00    +0.150 HD
ENDROOT
BRANCH   2  11
ATOM      5  S   UNL     1      35.822 -24.936 -14.244  0.00  0.00    -0.118 S 
ATOM      6  O   UNL     1      38.916 -22.896 -16.625  0.00  0.00    -0.273 OA
ATOM      7  N   UNL     1      38.173 -23.913 -14.629  0.00  0.00    -0.260 N 
ATOM      8  C   UNL     1      36.893 -23.462 -14.077  0.00  0.00    +0.151 C 
ATOM      9  C   UNL     1      37.281 -26.071 -14.016  0.00  0.00    +0.068 C 
ATOM     10  CA  UNL     1      38.431 -25.335 -14.739  0.00  0.00    +0.184 C 
ATOM     11  CA  UNL     1      36.838 -22.435 -15.217  0.00  0.00    +0.178 C 
ATOM     12  C   UNL     1      38.186 -23.029 -15.670  0.00  0.00    +0.247 C 
ATOM     13  C   UNL     1      37.497 -26.265 -12.509  0.00  0.00    +0.013 C 
ATOM     14  C   UNL     1      36.974 -27.415 -14.679  0.00  0.00    +0.013 C 
BRANCH  10  16
ATOM     15  OXT UNL     1      40.443 -24.777 -13.528  0.00  0.00    -0.248 OA
ATOM     16  C   UNL     1      39.796 -25.582 -14.182  0.00  0.00    +0.333 C 
BRANCH  16  17
ATOM     17  O   UNL     1      40.227 -26.826 -14.503  0.00  0.00    -0.479 OA
ATOM     18  H   UNL     1      39.646 -27.556 -14.429  0.00  0.00    +0.295 HD
ENDBRANCH  16  17
ENDBRANCH  10  16
ENDBRANCH   2  11
BRANCH   3  21
ATOM     19  O   UNL     1      32.736 -22.965 -19.087  0.00  0.00    -0.358 OA
ATOM     20  N   UNL     1      33.174 -22.041 -20.027  0.00  0.00    -0.077 NA
ATOM     21  C   UNL     1      34.574 -22.080 -18.277  0.00  0.00    +0.107 A 
ATOM     22  C   UNL     1      34.290 -21.520 -19.508  0.00  0.00    +0.130 A 
ATOM     23  C   UNL     1      33.595 -22.975 -18.035  0.00  0.00    +0.159 A 
ATOM     24  C   UNL     1      33.276 -23.905 -16.944  0.00  0.00    +0.076 C 
BRANCH  22  27
ATOM     25 CL   UNL     1      32.708 -19.074 -20.501  0.00  0.00    -0.082 Cl
ATOM     26  F   UNL     1      37.009 -21.798 -19.960  0.00  0.00    -0.204 F 
ATOM     27  C   UNL     1      35.023 -20.512 -20.227  0.00  0.00    +0.059 C 
ATOM     28  C   UNL     1      34.400 -19.365 -20.719  0.00  0.00    +0.061 C 
ATOM     29  C   UNL     1      36.391 -20.702 -20.426  0.00  0.00    +0.142 C 
ATOM     30  C   UNL     1      35.144 -18.408 -21.409  0.00  0.00    +0.012 C 
ATOM     31  C   UNL     1      37.135 -19.746 -21.118  0.00  0.00    +0.030 C 
ATOM     32  C   UNL     1      36.512 -18.599 -21.609  0.00  0.00    +0.003 C 
ENDBRANCH  22  27
ENDBRANCH   3  21
TORSDOF 5
ENDMDL
MODEL 3
REMARK VINA RESULT:      -7.1      5.616      9.421
REMARK  Name = 21319
REMARK  5 active torsions:
REMARK  status: ('A' for Active; 'I' for Inactive)
REMARK    1  A    between atoms: N_2  and  CA_11
REMARK    2  A    between atoms: C_3  and  C_21
REMARK    3  A    between atoms: CA_10  and  C_16
REMARK    4  A    between atoms: C_16  and  O_17
REMARK    5  A    between atoms: C_22  and  C_27
REMARK                            x       y       z     vdW  Elec       q    Type
REMARK                         _______ _______ _______ _____ _____    ______ ____
ROOT
ATOM      1  O   UNL     1      35.782 -17.430 -20.291  0.00  0.00    -0.270 OA
ATOM      2  N   UNL     1      34.447 -16.188 -21.700  0.00  0.00    -0.293 N 
ATOM      3  C   UNL     1      35.166 -17.338 -21.352  0.00  0.00    +0.251 C 
ATOM      4  H   UNL     1      33.972 -16.171 -22.563  0.00  0.00    +0.150 HD
ENDROOT
BRANCH   2  11
ATOM      5  S   UNL     1      34.132 -13.599 -23.320  0.00  0.00    -0.118 S 
ATOM      6  O   UNL     1      32.043 -15.248 -19.809  0.00  0.00    -0.273 OA
ATOM      7  N   UNL     1      33.008 -13.445 -20.988  0.00  0.00    -0.260 N 
ATOM      8  C   UNL     1      34.367 -13.627 -21.506  0.00  0.00    +0.151 C 
ATOM      9  C   UNL     1      32.692 -12.429 -23.155  0.00  0.00    +0.068 C 
ATOM     10  CA  UNL     1      31.990 -12.896 -21.861  0.00  0.00    +0.184 C 
ATOM     11  CA  UNL     1      34.370 -15.005 -20.830  0.00  0.00    +0.178 C 
ATOM     12  C   UNL     1      32.940 -14.659 -20.368  0.00  0.00    +0.247 C 
ATOM     13  C   UNL     1      33.250 -11.001 -23.097  0.00  0.00    +0.013 C 
ATOM     14  C   UNL     1      31.780 -12.587 -24.373  0.00  0.00    +0.013 C 
BRANCH  10  16
ATOM     15  OXT UNL     1      31.674 -11.336 -20.046  0.00  0.00    -0.248 OA
ATOM     16  C   UNL     1      31.283 -11.824 -21.096  0.00  0.00    +0.333 C 
BRANCH  16  17
ATOM     17  O   UNL     1      30.138 -11.462 -21.725  0.00  0.00    -0.479 OA
ATOM     18  H   UNL     1      29.548 -12.118 -22.037  0.00  0.00    +0.295 HD
ENDBRANCH  16  17
ENDBRANCH  10  16
ENDBRANCH   2  11
BRANCH   3  21
ATOM     19  O   UNL     1      35.029 -19.539 -24.215  0.00  0.00    -0.358 OA
ATOM     20  N   UNL     1      35.088 -20.500 -23.214  0.00  0.00    -0.077 NA
ATOM     21  C   UNL     1      35.122 -18.448 -22.312  0.00  0.00    +0.107 A 
ATOM     22  C   UNL     1      35.144 -19.809 -22.072  0.00  0.00    +0.130 A 
ATOM     23  C   UNL     1      35.051 -18.304 -23.651  0.00  0.00    +0.159 A 
ATOM     24  C   UNL     1      34.994 -17.165 -24.578  0.00  0.00    +0.076 C 
BRANCH  22  27
ATOM     25 CL   UNL     1      32.483 -20.679 -20.795  0.00  0.00    -0.082 Cl
ATOM     26  F   UNL     1      37.589 -20.313 -20.869  0.00  0.00    -0.204 F 
ATOM     27  C   UNL     1      35.216 -20.496 -20.809  0.00  0.00    +0.059 C 
ATOM     28  C   UNL     1      34.068 -20.931 -20.147  0.00  0.00    +0.061 C 
ATOM     29  C   UNL     1      36.473 -20.723 -20.248  0.00  0.00    +0.142 C 
ATOM     30  C   UNL     1      34.176 -21.596 -18.925  0.00  0.00    +0.012 C 
ATOM     31  C   UNL     1      36.581 -21.386 -19.025  0.00  0.00    +0.030 C 
ATOM     32  C   UNL     1      35.434 -21.823 -18.364  0.00  0.00    +0.003 C 
ENDBRANCH  22  27
ENDBRANCH   3  21
TORSDOF 5
ENDMDL
MODEL 4
REMARK VINA RESULT:      -7.1      2.858      4.069
REMARK  Name = 21319
REMARK  5 active torsions:
REMARK  status: ('A' for Active; 'I' for Inactive)
REMARK    1  A    between atoms: N_2  and  CA_11
REMARK    2  A    between atoms: C_3  and  C_21
REMARK    3  A    between atoms: CA_10  and  C_16
REMARK    4  A    between atoms: C_16  and  O_17
REMARK    5  A    between atoms: C_22  and  C_27
REMARK                            x       y       z     vdW  Elec       q    Type
REMARK                         _______ _______ _______ _____ _____    ______ ____
ROOT
ATOM      1  O   UNL     1      31.247  -9.694 -23.168  0.00  0.00    -0.270 OA
ATOM      2  N   UNL     1      32.851 -11.349 -23.112  0.00  0.00    -0.293 N 
ATOM      3  C   UNL     1      32.426 -10.025 -23.285  0.00  0.00    +0.251 C 
ATOM      4  H   UNL     1      33.808 -11.555 -23.218  0.00  0.00    +0.150 HD
ENDROOT
BRANCH   2  11
ATOM      5  S   UNL     1      33.728 -14.009 -24.369  0.00  0.00    -0.118 S 
ATOM      6  O   UNL     1      32.456 -12.849 -20.314  0.00  0.00    -0.273 OA
ATOM      7  N   UNL     1      32.451 -14.346 -22.137  0.00  0.00    -0.260 N 
ATOM      8  C   UNL     1      32.153 -13.796 -23.463  0.00  0.00    +0.151 C 
ATOM      9  C   UNL     1      34.127 -15.546 -23.395  0.00  0.00    +0.068 C 
ATOM     10  CA  UNL     1      33.588 -15.231 -21.982  0.00  0.00    +0.184 C 
ATOM     11  CA  UNL     1      31.927 -12.442 -22.777  0.00  0.00    +0.178 C 
ATOM     12  C   UNL     1      32.270 -13.173 -21.464  0.00  0.00    +0.247 C 
ATOM     13  C   UNL     1      33.444 -16.733 -24.088  0.00  0.00    +0.013 C 
ATOM     14  C   UNL     1      35.643 -15.747 -23.382  0.00  0.00    +0.013 C 
BRANCH  10  16
ATOM     15  OXT UNL     1      33.809 -17.389 -20.922  0.00  0.00    -0.248 OA
ATOM     16  C   UNL     1      33.122 -16.416 -21.198  0.00  0.00    +0.333 C 
BRANCH  16  17
ATOM     17  O   UNL     1      31.825 -16.270 -20.833  0.00  0.00    -0.479 OA
ATOM     18  H   UNL     1      31.612 -16.026 -19.955  0.00  0.00    +0.295 HD
ENDBRANCH  16  17
ENDBRANCH  10  16
ENDBRANCH   2  11
BRANCH   3  21
ATOM     19  O   UNL     1      35.340  -8.168 -24.344  0.00  0.00    -0.358 OA
ATOM     20  N   UNL     1      34.646  -7.135 -23.726  0.00  0.00    -0.077 NA
ATOM     21  C   UNL     1      33.474  -9.041 -23.587  0.00  0.00    +0.107 A 
ATOM     22  C   UNL     1      33.518  -7.695 -23.278  0.00  0.00    +0.130 A 
ATOM     23  C   UNL     1      34.616  -9.312 -24.250  0.00  0.00    +0.159 A 
ATOM     24  C   UNL     1      35.213 -10.510 -24.857  0.00  0.00    +0.076 C 
BRANCH  22  27
ATOM     25 CL   UNL     1      31.697  -5.881 -24.969  0.00  0.00    -0.082 Cl
ATOM     26  F   UNL     1      33.315  -7.822 -20.518  0.00  0.00    -0.204 F 
ATOM     27  C   UNL     1      32.544  -6.903 -22.574  0.00  0.00    +0.059 C 
ATOM     28  C   UNL     1      31.671  -6.048 -23.247  0.00  0.00    +0.061 C 
ATOM     29  C   UNL     1      32.485  -7.006 -21.184  0.00  0.00    +0.142 C 
ATOM     30  C   UNL     1      30.738  -5.297 -22.531  0.00  0.00    +0.012 C 
ATOM     31  C   UNL     1      31.553  -6.254 -20.468  0.00  0.00    +0.030 C 
ATOM     32  C   UNL     1      30.680  -5.400 -21.141  0.00  0.00    +0.003 C 
ENDBRANCH  22  27
ENDBRANCH   3  21
TORSDOF 5
ENDMDL
MODEL 5
REMARK VINA RESULT:      -6.6     11.164     14.632
REMARK  Name = 21319
REMARK  5 active torsions:
REMARK  status: ('A' for Active; 'I' for Inactive)
REMARK    1  A    between atoms: N_2  and  CA_11
REMARK    2  A    between atoms: C_3  and  C_21
REMARK    3  A    between atoms: CA_10  and  C_16
REMARK    4  A    between atoms: C_16  and  O_17
REMARK    5  A    between atoms: C_22  and  C_27
REMARK                            x       y       z     vdW  Elec       q    Type
REMARK                         _______ _______ _______ _____ _____    ______ ____
ROOT
ATOM      1  O   UNL     1      36.943 -23.133 -16.307  0.00  0.00    -0.270 OA
ATOM      2  N   UNL     1      35.257 -22.733 -17.827  0.00  0.00    -0.293 N 
ATOM      3  C   UNL     1      35.742 -23.128 -16.574  0.00  0.00    +0.251 C 
ATOM      4  H   UNL     1      34.285 -22.749 -17.984  0.00  0.00    +0.150 HD
ENDROOT
BRANCH   2  11
ATOM      5  S   UNL     1      33.667 -21.564 -20.179  0.00  0.00    -0.118 S 
ATOM      6  O   UNL     1      37.199 -20.192 -17.930  0.00  0.00    -0.273 OA
ATOM      7  N   UNL     1      36.020 -20.497 -19.952  0.00  0.00    -0.260 N 
ATOM      8  C   UNL     1      35.477 -21.831 -20.223  0.00  0.00    +0.151 C 
ATOM      9  C   UNL     1      33.869 -19.825 -20.817  0.00  0.00    +0.068 C 
ATOM     10  CA  UNL     1      35.171 -19.339 -20.144  0.00  0.00    +0.184 C 
ATOM     11  CA  UNL     1      36.139 -22.294 -18.918  0.00  0.00    +0.178 C 
ATOM     12  C   UNL     1      36.630 -20.839 -18.780  0.00  0.00    +0.247 C 
ATOM     13  C   UNL     1      33.930 -19.891 -22.350  0.00  0.00    +0.013 C 
ATOM     14  C   UNL     1      32.666 -18.991 -20.376  0.00  0.00    +0.013 C 
BRANCH  10  16
ATOM     15  OXT UNL     1      36.899 -18.602 -21.659  0.00  0.00    -0.248 OA
ATOM     16  C   UNL     1      35.958 -18.337 -20.926  0.00  0.00    +0.333 C 
BRANCH  16  17
ATOM     17  O   UNL     1      35.488 -17.084 -20.711  0.00  0.00    -0.479 OA
ATOM     18  H   UNL     1      35.646 -16.410 -21.341  0.00  0.00    +0.295 HD
ENDBRANCH  16  17
ENDBRANCH  10  16
ENDBRANCH   2  11
BRANCH   3  21
ATOM     19  O   UNL     1      32.787 -23.794 -14.604  0.00  0.00    -0.358 OA
ATOM     20  N   UNL     1      33.740 -24.304 -13.730  0.00  0.00    -0.077 NA
ATOM     21  C   UNL     1      34.733 -23.511 -15.578  0.00  0.00    +0.107 A 
ATOM     22  C   UNL     1      34.910 -24.118 -14.349  0.00  0.00    +0.130 A 
ATOM     23  C   UNL     1      33.406 -23.320 -15.715  0.00  0.00    +0.159 A 
ATOM     24  C   UNL     1      32.534 -22.741 -16.747  0.00  0.00    +0.076 C 
BRANCH  22  27
ATOM     25 CL   UNL     1      36.277 -26.635 -15.475  0.00  0.00    -0.082 Cl
ATOM     26  F   UNL     1      35.970 -22.693 -12.223  0.00  0.00    -0.204 F 
ATOM     27  C   UNL     1      36.137 -24.535 -13.722  0.00  0.00    +0.059 C 
ATOM     28  C   UNL     1      36.834 -25.662 -14.157  0.00  0.00    +0.061 C 
ATOM     29  C   UNL     1      36.626 -23.781 -12.655  0.00  0.00    +0.142 C 
ATOM     30  C   UNL     1      38.022 -26.035 -13.526  0.00  0.00    +0.012 C 
ATOM     31  C   UNL     1      37.813 -24.155 -12.023  0.00  0.00    +0.030 C 
ATOM     32  C   UNL     1      38.511 -25.281 -12.458  0.00  0.00    +0.003 C 
ENDBRANCH  22  27
ENDBRANCH   3  21
TORSDOF 5
ENDMDL
MODEL 6
REMARK VINA RESULT:      -6.6     10.101     13.741
REMARK  Name = 21319
REMARK  5 active torsions:
REMARK  status: ('A' for Active; 'I' for Inactive)
REMARK    1  A    between atoms: N_2  and  CA_11
REMARK    2  A    between atoms: C_3  and  C_21
REMARK    3  A    between atoms: CA_10  and  C_16
REMARK    4  A    between atoms: C_16  and  O_17
REMARK    5  A    between atoms: C_22  and  C_27
REMARK                            x       y       z     vdW  Elec       q    Type
REMARK                         _______ _______ _______ _____ _____    ______ ____
ROOT
ATOM      1  O   UNL     1      33.927 -24.058 -18.916  0.00  0.00    -0.270 OA
ATOM      2  N   UNL     1      35.032 -22.128 -18.312  0.00  0.00    -0.293 N 
ATOM      3  C   UNL     1      34.186 -23.214 -18.059  0.00  0.00    +0.251 C 
ATOM      4  H   UNL     1      35.203 -21.483 -17.587  0.00  0.00    +0.150 HD
ENDROOT
BRANCH   2  11
ATOM      5  S   UNL     1      33.139 -20.764 -20.308  0.00  0.00    -0.118 S 
ATOM      6  O   UNL     1      37.307 -20.017 -19.092  0.00  0.00    -0.273 OA
ATOM      7  N   UNL     1      35.625 -20.166 -20.740  0.00  0.00    -0.260 N 
ATOM      8  C   UNL     1      34.802 -21.379 -20.759  0.00  0.00    +0.151 C 
ATOM      9  C   UNL     1      33.481 -19.124 -21.123  0.00  0.00    +0.068 C 
ATOM     10  CA  UNL     1      34.975 -18.874 -20.823  0.00  0.00    +0.184 C 
ATOM     11  CA  UNL     1      35.677 -21.910 -19.615  0.00  0.00    +0.178 C 
ATOM     12  C   UNL     1      36.438 -20.574 -19.722  0.00  0.00    +0.247 C 
ATOM     13  C   UNL     1      33.144 -19.260 -22.614  0.00  0.00    +0.013 C 
ATOM     14  C   UNL     1      32.595 -18.056 -20.480  0.00  0.00    +0.013 C 
BRANCH  10  16
ATOM     15  OXT UNL     1      36.471 -18.537 -22.687  0.00  0.00    -0.248 OA
ATOM     16  C   UNL     1      35.707 -18.075 -21.853  0.00  0.00    +0.333 C 
BRANCH  16  17
ATOM     17  O   UNL     1      35.411 -16.757 -21.736  0.00  0.00    -0.479 OA
ATOM     18  H   UNL     1      34.687 -16.484 -21.210  0.00  0.00    +0.295 HD
ENDBRANCH  16  17
ENDBRANCH  10  16
ENDBRANCH   2  11
BRANCH   3  21
ATOM     19  O   UNL     1      32.226 -23.227 -15.022  0.00  0.00    -0.358 OA
ATOM     20  N   UNL     1      33.437 -23.655 -14.492  0.00  0.00    -0.077 NA
ATOM     21  C   UNL     1      33.641 -23.311 -16.698  0.00  0.00    +0.107 A 
ATOM     22  C   UNL     1      34.275 -23.697 -15.532  0.00  0.00    +0.130 A 
ATOM     23  C   UNL     1      32.369 -23.024 -16.357  0.00  0.00    +0.159 A 
ATOM     24  C   UNL     1      31.172 -22.565 -17.075  0.00  0.00    +0.076 C 
BRANCH  22  27
ATOM     25 CL   UNL     1      36.441 -21.534 -15.845  0.00  0.00    -0.082 Cl
ATOM     26  F   UNL     1      34.897 -26.326 -14.919  0.00  0.00    -0.204 F 
ATOM     27  C   UNL     1      35.643 -24.106 -15.347  0.00  0.00    +0.059 C 
ATOM     28  C   UNL     1      36.699 -23.203 -15.468  0.00  0.00    +0.061 C 
ATOM     29  C   UNL     1      35.900 -25.442 -15.040  0.00  0.00    +0.142 C 
ATOM     30  C   UNL     1      38.012 -23.635 -15.279  0.00  0.00    +0.012 C 
ATOM     31  C   UNL     1      37.213 -25.875 -14.853  0.00  0.00    +0.030 C 
ATOM     32  C   UNL     1      38.269 -24.972 -14.972  0.00  0.00    +0.003 C 
ENDBRANCH  22  27
ENDBRANCH   3  21
TORSDOF 5
ENDMDL
MODEL 7
REMARK VINA RESULT:      -6.5      2.578      6.754
REMARK  Name = 21319
REMARK  5 active torsions:
REMARK  status: ('A' for Active; 'I' for Inactive)
REMARK    1  A    between atoms: N_2  and  CA_11
REMARK    2  A    between atoms: C_3  and  C_21
REMARK    3  A    between atoms: CA_10  and  C_16
REMARK    4  A    between atoms: C_16  and  O_17
REMARK    5  A    between atoms: C_22  and  C_27
REMARK                            x       y       z     vdW  Elec       q    Type
REMARK                         _______ _______ _______ _____ _____    ______ ____
ROOT
ATOM      1  O   UNL     1      35.351 -10.840 -24.040  0.00  0.00    -0.270 OA
ATOM      2  N   UNL     1      33.241 -10.475 -23.187  0.00  0.00    -0.293 N 
ATOM      3  C   UNL     1      34.172 -11.181 -23.959  0.00  0.00    +0.251 C 
ATOM      4  H   UNL     1      32.310 -10.795 -23.160  0.00  0.00    +0.150 HD
ENDROOT
BRANCH   2  11
ATOM      5  S   UNL     1      32.690  -7.898 -24.763  0.00  0.00    -0.118 S 
ATOM      6  O   UNL     1      31.741  -9.204 -20.664  0.00  0.00    -0.273 OA
ATOM      7  N   UNL     1      32.446  -7.560 -22.203  0.00  0.00    -0.260 N 
ATOM      8  C   UNL     1      33.520  -7.922 -23.133  0.00  0.00    +0.151 C 
ATOM      9  C   UNL     1      31.533  -6.553 -24.198  0.00  0.00    +0.068 C 
ATOM     10  CA  UNL     1      31.262  -6.903 -22.718  0.00  0.00    +0.184 C 
ATOM     11  CA  UNL     1      33.597  -9.276 -22.414  0.00  0.00    +0.178 C 
ATOM     12  C   UNL     1      32.456  -8.744 -21.524  0.00  0.00    +0.247 C 
ATOM     13  C   UNL     1      32.234  -5.205 -24.416  0.00  0.00    +0.013 C 
ATOM     14  C   UNL     1      30.251  -6.617 -25.030  0.00  0.00    +0.013 C 
BRANCH  10  16
ATOM     15  OXT UNL     1      29.960  -5.064 -21.852  0.00  0.00    -0.248 OA
ATOM     16  C   UNL     1      30.981  -5.736 -21.827  0.00  0.00    +0.333 C 
BRANCH  16  17
ATOM     17  O   UNL     1      32.017  -5.517 -20.982  0.00  0.00    -0.479 OA
ATOM     18  H   UNL     1      31.858  -5.397 -20.067  0.00  0.00    +0.295 HD
ENDBRANCH  16  17
ENDBRANCH  10  16
ENDBRANCH   2  11
BRANCH   3  21
ATOM     19  O   UNL     1      33.071 -13.737 -26.264  0.00  0.00    -0.358 OA
ATOM     20  N   UNL     1      32.845 -14.417 -25.074  0.00  0.00    -0.077 NA
ATOM     21  C   UNL     1      33.671 -12.377 -24.650  0.00  0.00    +0.107 A 
ATOM     22  C   UNL     1      33.219 -13.567 -24.113  0.00  0.00    +0.130 A 
ATOM     23  C   UNL     1      33.571 -12.505 -25.988  0.00  0.00    +0.159 A 
ATOM     24  C   UNL     1      33.867 -11.651 -27.146  0.00  0.00    +0.076 C 
BRANCH  22  27
ATOM     25 CL   UNL     1      35.128 -15.766 -23.119  0.00  0.00    -0.082 Cl
ATOM     26  F   UNL     1      31.377 -12.349 -22.440  0.00  0.00    -0.204 F 
ATOM     27  C   UNL     1      33.119 -13.946 -22.728  0.00  0.00    +0.059 C 
ATOM     28  C   UNL     1      33.938 -14.932 -22.179  0.00  0.00    +0.061 C 
ATOM     29  C   UNL     1      32.174 -13.300 -21.930  0.00  0.00    +0.142 C 
ATOM     30  C   UNL     1      33.814 -15.272 -20.832  0.00  0.00    +0.012 C 
ATOM     31  C   UNL     1      32.049 -13.641 -20.583  0.00  0.00    +0.030 C 
ATOM     32  C   UNL     1      32.869 -14.627 -20.034  0.00  0.00    +0.003 C 
ENDBRANCH  22  27
ENDBRANCH   3  21
TORSDOF 5
ENDMDL
MODEL 8
REMARK VINA RESULT:      -6.3      2.296      3.771
REMARK  Name = 21319
REMARK  5 active torsions:
REMARK  status: ('A' for Active; 'I' for Inactive)
REMARK    1  A    between atoms: N_2  and  CA_11
REMARK    2  A    between atoms: C_3  and  C_21
REMARK    3  A    between atoms: CA_10  and  C_16
REMARK    4  A    between atoms: C_16  and  O_17
REMARK    5  A    between atoms: C_22  and  C_27
REMARK                            x       y       z     vdW  Elec       q    Type
REMARK                         _______ _______ _______ _____ _____    ______ ____
ROOT
ATOM      1  O   UNL     1      33.457 -10.685 -23.440  0.00  0.00    -0.270 OA
ATOM      2  N   UNL     1      33.231 -12.878 -22.767  0.00  0.00    -0.293 N 
ATOM      3  C   UNL     1      32.991 -11.504 -22.648  0.00  0.00    +0.251 C 
ATOM      4  H   UNL     1      32.832 -13.486 -22.103  0.00  0.00    +0.150 HD
ENDROOT
BRANCH   2  11
ATOM      5  S   UNL     1      34.783 -15.352 -21.819  0.00  0.00    -0.118 S 
ATOM      6  O   UNL     1      32.293 -14.510 -25.354  0.00  0.00    -0.273 OA
ATOM      7  N   UNL     1      34.202 -15.460 -24.344  0.00  0.00    -0.260 N 
ATOM      8  C   UNL     1      35.005 -14.598 -23.471  0.00  0.00    +0.151 C 
ATOM      9  C   UNL     1      34.612 -17.047 -22.572  0.00  0.00    +0.068 C 
ATOM     10  CA  UNL     1      33.842 -16.786 -23.884  0.00  0.00    +0.184 C 
ATOM     11  CA  UNL     1      34.055 -13.450 -23.841  0.00  0.00    +0.178 C 
ATOM     12  C   UNL     1      33.317 -14.488 -24.711  0.00  0.00    +0.247 C 
ATOM     13  C   UNL     1      36.022 -17.622 -22.763  0.00  0.00    +0.013 C 
ATOM     14  C   UNL     1      33.809 -17.935 -21.620  0.00  0.00    +0.013 C 
BRANCH  10  16
ATOM     15  OXT UNL     1      33.803 -18.911 -25.029  0.00  0.00    -0.248 OA
ATOM     16  C   UNL     1      34.140 -17.737 -24.999  0.00  0.00    +0.333 C 
BRANCH  16  17
ATOM     17  O   UNL     1      34.843 -17.120 -25.980  0.00  0.00    -0.479 OA
ATOM     18  H   UNL     1      34.995 -16.198 -25.938  0.00  0.00    +0.295 HD
ENDBRANCH  16  17
ENDBRANCH  10  16
ENDBRANCH   2  11
BRANCH   3  21
ATOM     19  O   UNL     1      30.936 -11.171 -19.693  0.00  0.00    -0.358 OA
ATOM     20  N   UNL     1      30.820  -9.874 -20.177  0.00  0.00    -0.077 NA
ATOM     21  C   UNL     1      32.122 -11.089 -21.539  0.00  0.00    +0.107 A 
ATOM     22  C   UNL     1      31.550  -9.855 -21.296  0.00  0.00    +0.130 A 
ATOM     23  C   UNL     1      31.728 -11.891 -20.530  0.00  0.00    +0.159 A 
ATOM     24  C   UNL     1      31.954 -13.295 -20.161  0.00  0.00    +0.076 C 
BRANCH  22  27
ATOM     25 CL   UNL     1      33.325  -7.610 -20.165  0.00  0.00    -0.082 Cl
ATOM     26  F   UNL     1      30.203  -9.595 -23.703  0.00  0.00    -0.204 F 
ATOM     27  C   UNL     1      31.657  -8.647 -22.072  0.00  0.00    +0.059 C 
ATOM     28  C   UNL     1      32.435  -7.571 -21.648  0.00  0.00    +0.061 C 
ATOM     29  C   UNL     1      30.957  -8.570 -23.277  0.00  0.00    +0.142 C 
ATOM     30  C   UNL     1      32.516  -6.417 -22.429  0.00  0.00    +0.012 C 
ATOM     31  C   UNL     1      31.037  -7.416 -24.057  0.00  0.00    +0.030 C 
ATOM     32  C   UNL     1      31.816  -6.340 -23.634  0.00  0.00    +0.003 C 
ENDBRANCH  22  27
ENDBRANCH   3  21
TORSDOF 5
ENDMDL
MODEL 9
REMARK VINA RESULT:      -6.2     13.534     16.099
REMARK  Name = 21319
REMARK  5 active torsions:
REMARK  status: ('A' for Active; 'I' for Inactive)
REMARK    1  A    between atoms: N_2  and  CA_11
REMARK    2  A    between atoms: C_3  and  C_21
REMARK    3  A    between atoms: CA_10  and  C_16
REMARK    4  A    between atoms: C_16  and  O_17
REMARK    5  A    between atoms: C_22  and  C_27
REMARK                            x       y       z     vdW  Elec       q    Type
REMARK                         _______ _______ _______ _____ _____    ______ ____
ROOT
ATOM      1  O   UNL     1      35.171 -25.068 -16.188  0.00  0.00    -0.270 OA
ATOM      2  N   UNL     1      34.010 -23.169 -16.788  0.00  0.00    -0.293 N 
ATOM      3  C   UNL     1      35.157 -23.850 -16.360  0.00  0.00    +0.251 C 
ATOM      4  H   UNL     1      34.058 -22.193 -16.909  0.00  0.00    +0.150 HD
ENDROOT
BRANCH   2  11
ATOM      5  S   UNL     1      32.627 -24.093 -14.207  0.00  0.00    -0.118 S 
ATOM      6  O   UNL     1      31.238 -21.913 -17.775  0.00  0.00    -0.273 OA
ATOM      7  N   UNL     1      30.932 -23.536 -16.089  0.00  0.00    -0.260 N 
ATOM      8  C   UNL     1      32.012 -24.505 -15.880  0.00  0.00    +0.151 C 
ATOM      9  C   UNL     1      30.928 -23.543 -13.675  0.00  0.00    +0.068 C 
ATOM     10  CA  UNL     1      30.350 -22.873 -14.940  0.00  0.00    +0.184 C 
ATOM     11  CA  UNL     1      32.738 -23.852 -17.065  0.00  0.00    +0.178 C 
ATOM     12  C   UNL     1      31.524 -22.906 -17.146  0.00  0.00    +0.247 C 
ATOM     13  C   UNL     1      30.158 -24.784 -13.203  0.00  0.00    +0.013 C 
ATOM     14  C   UNL     1      31.066 -22.543 -12.526  0.00  0.00    +0.013 C 
BRANCH  10  16
ATOM     15  OXT UNL     1      28.243 -23.974 -15.358  0.00  0.00    -0.248 OA
ATOM     16  C   UNL     1      28.865 -22.957 -15.085  0.00  0.00    +0.333 C 
BRANCH  16  17
ATOM     17  O   UNL     1      28.292 -21.746 -14.875  0.00  0.00    -0.479 OA
ATOM     18  H   UNL     1      27.923 -21.543 -14.039  0.00  0.00    +0.295 HD
ENDBRANCH  16  17
ENDBRANCH  10  16
ENDBRANCH   2  11
BRANCH   3  21
ATOM     19  O   UNL     1      37.909 -21.510 -16.472  0.00  0.00    -0.358 OA
ATOM     20  N   UNL     1      38.249 -22.178 -15.302  0.00  0.00    -0.077 NA
ATOM     21  C   UNL     1      36.360 -23.033 -16.155  0.00  0.00    +0.107 A 
ATOM     22  C   UNL     1      37.291 -23.095 -15.136  0.00  0.00    +0.130 A 
ATOM     23  C   UNL     1      36.764 -22.040 -16.973  0.00  0.00    +0.159 A 
ATOM     24  C   UNL     1      36.263 -21.443 -18.219  0.00  0.00    +0.076 C 
BRANCH  22  27
ATOM     25 CL   UNL     1      39.528 -25.207 -15.074  0.00  0.00    -0.082 Cl
ATOM     26  F   UNL     1      35.409 -22.885 -13.114  0.00  0.00    -0.204 F 
ATOM     27  C   UNL     1      37.325 -23.983 -14.004  0.00  0.00    +0.059 C 
ATOM     28  C   UNL     1      38.297 -24.975 -13.881  0.00  0.00    +0.061 C 
ATOM     29  C   UNL     1      36.352 -23.833 -13.014  0.00  0.00    +0.142 C 
ATOM     30  C   UNL     1      38.299 -25.817 -12.768  0.00  0.00    +0.012 C 
ATOM     31  C   UNL     1      36.353 -24.676 -11.902  0.00  0.00    +0.030 C 
ATOM     32  C   UNL     1      37.326 -25.667 -11.779  0.00  0.00    +0.003 C 
ENDBRANCH  22  27
ENDBRANCH   3  21
TORSDOF 5
ENDMDL
