MODEL 1
REMARK VINA RESULT:     -10.4      0.000      0.000
REMARK  Name = 4369502
REMARK  8 active torsions:
REMARK  status: ('A' for Active; 'I' for Inactive)
REMARK    1  A    between atoms: N_1  and  C_12
REMARK    2  A    between atoms: N_2  and  CA_23
REMARK    3  A    between atoms: C_10  and  O_15
REMARK    4  A    between atoms: O_15  and  C_16
REMARK    5  A    between atoms: C_16  and  C_17
REMARK    6  A    between atoms: CA_23  and  C_24
REMARK    7  A    between atoms: CA_23  and  C_26
REMARK    8  A    between atoms: C_26  and  O_27
REMARK                            x       y       z     vdW  Elec       q    Type
REMARK                         _______ _______ _______ _____ _____    ______ ____
ROOT
ATOM      1  N   UNL     1      36.248 -24.299 -13.790  0.00  0.00    -0.262 N 
ATOM      2  N   UNL     1      31.570 -24.140 -14.607  0.00  0.00    -0.258 N 
ATOM      3  N   UNL     1      33.829 -24.293 -14.014  0.00  0.00    -0.311 NA
ATOM      4  N   UNL     1      36.819 -23.510 -15.794  0.00  0.00    -0.239 NA
ATOM      5  N   UNL     1      33.145 -23.473 -16.208  0.00  0.00    -0.289 NA
ATOM      6  C   UNL     1      35.077 -24.081 -14.458  0.00  0.00    +0.222 C 
ATOM      7  C   UNL     1      35.453 -23.592 -15.699  0.00  0.00    +0.190 C 
ATOM      8  C   UNL     1      32.896 -23.962 -14.955  0.00  0.00    +0.204 C 
ATOM      9  C   UNL     1      37.265 -23.941 -14.633  0.00  0.00    +0.222 C 
ATOM     10  C   UNL     1      34.430 -23.284 -16.590  0.00  0.00    +0.311 C 
ATOM     11  H   UNL     1      31.367 -24.492 -13.710  0.00  0.00    +0.160 HD
ENDROOT
BRANCH   1  12
ATOM     12  C   UNL     1      36.396 -24.809 -12.448  0.00  0.00    +0.077 C 
ATOM     13  C   UNL     1      36.596 -23.687 -11.428  0.00  0.00    +0.022 C 
ATOM     14  C   UNL     1      37.503 -25.861 -12.354  0.00  0.00    +0.022 C 
ENDBRANCH   1  12
BRANCH  10  15
ATOM     15  O   UNL     1      34.673 -22.793 -17.848  0.00  0.00    -0.445 OA
BRANCH  15  16
ATOM     16  C   UNL     1      33.536 -22.463 -18.635  0.00  0.00    +0.235 C 
BRANCH  16  17
ATOM     17  C   UNL     1      33.946 -21.352 -19.551  0.00  0.00    +0.021 C 
ATOM     18  C   UNL     1      32.975 -20.539 -20.130  0.00  0.00    -0.001 C 
ATOM     19  C   UNL     1      35.295 -21.139 -19.821  0.00  0.00    -0.001 C 
ATOM     20  C   UNL     1      33.357 -19.504 -20.984  0.00  0.00    -0.000 C 
ATOM     21  C   UNL     1      35.676 -20.104 -20.675  0.00  0.00    -0.000 C 
ATOM     22  C   UNL     1      34.706 -19.287 -21.257  0.00  0.00    -0.000 C 
ENDBRANCH  16  17
ENDBRANCH  15  16
ENDBRANCH  10  15
BRANCH   2  23
ATOM     23  CA  UNL     1      30.464 -23.834 -15.493  0.00  0.00    +0.109 C 
BRANCH  23  24
ATOM     24  C   UNL     1      29.698 -22.612 -14.967  0.00  0.00    +0.023 C 
ATOM     25  C   UNL     1      28.379 -22.387 -15.695  0.00  0.00    +0.002 C 
ENDBRANCH  23  24
BRANCH  23  26
ATOM     26  C   UNL     1      29.547 -25.055 -15.574  0.00  0.00    +0.157 C 
BRANCH  26  27
ATOM     27  O   UNL     1      29.211 -25.482 -14.259  0.00  0.00    -0.380 OA
ATOM     28  H   UNL     1      29.644 -24.906 -13.611  0.00  0.00    +0.211 HD
ENDBRANCH  26  27
ENDBRANCH  23  26
ENDBRANCH   2  23
TORSDOF 8
ENDMDL
MODEL 2
REMARK VINA RESULT:      -9.6      1.870      5.250
REMARK  Name = 4369502
REMARK  8 active torsions:
REMARK  status: ('A' for Active; 'I' for Inactive)
REMARK    1  A    between atoms: N_1  and  C_12
REMARK    2  A    between atoms: N_2  and  CA_23
REMARK    3  A    between atoms: C_10  and  O_15
REMARK    4  A    between atoms: O_15  and  C_16
REMARK    5  A    between atoms: C_16  and  C_17
REMARK    6  A    between atoms: CA_23  and  C_24
REMARK    7  A    between atoms: CA_23  and  C_26
REMARK    8  A    between atoms: C_26  and  O_27
REMARK                            x       y       z     vdW  Elec       q    Type
REMARK                         _______ _______ _______ _____ _____    ______ ____
ROOT
ATOM      1  N   UNL     1      31.523 -24.083 -15.216  0.00  0.00    -0.262 N 
ATOM      2  N   UNL     1      35.956 -24.922 -13.728  0.00  0.00    -0.258 N 
ATOM      3  N   UNL     1      33.707 -24.618 -14.295  0.00  0.00    -0.311 NA
ATOM      4  N   UNL     1      32.140 -22.899 -17.000  0.00  0.00    -0.239 NA
ATOM      5  N   UNL     1      35.498 -23.675 -15.658  0.00  0.00    -0.289 NA
ATOM      6  C   UNL     1      32.889 -24.055 -15.197  0.00  0.00    +0.222 C 
ATOM      7  C   UNL     1      33.251 -23.316 -16.311  0.00  0.00    +0.190 C 
ATOM      8  C   UNL     1      35.019 -24.386 -14.591  0.00  0.00    +0.204 C 
ATOM      9  C   UNL     1      31.121 -23.376 -16.317  0.00  0.00    +0.222 C 
ATOM     10  C   UNL     1      34.613 -23.132 -16.528  0.00  0.00    +0.311 C 
ATOM     11  H   UNL     1      35.636 -25.437 -12.953  0.00  0.00    +0.160 HD
ENDROOT
BRANCH   1  12
ATOM     12  C   UNL     1      30.658 -24.733 -14.261  0.00  0.00    +0.077 C 
ATOM     13  C   UNL     1      29.304 -25.100 -14.872  0.00  0.00    +0.022 C 
ATOM     14  C   UNL     1      30.494 -23.909 -12.983  0.00  0.00    +0.022 C 
ENDBRANCH   1  12
BRANCH  10  15
ATOM     15  O   UNL     1      35.100 -22.420 -17.595  0.00  0.00    -0.445 OA
BRANCH  15  16
ATOM     16  C   UNL     1      34.612 -22.783 -18.880  0.00  0.00    +0.235 C 
BRANCH  16  17
ATOM     17  C   UNL     1      34.444 -21.515 -19.659  0.00  0.00    +0.021 C 
ATOM     18  C   UNL     1      33.168 -21.005 -19.883  0.00  0.00    -0.001 C 
ATOM     19  C   UNL     1      35.565 -20.854 -20.155  0.00  0.00    -0.001 C 
ATOM     20  C   UNL     1      33.012 -19.824 -20.608  0.00  0.00    -0.000 C 
ATOM     21  C   UNL     1      35.408 -19.674 -20.881  0.00  0.00    -0.000 C 
ATOM     22  C   UNL     1      34.131 -19.158 -21.107  0.00  0.00    -0.000 C 
ENDBRANCH  16  17
ENDBRANCH  15  16
ENDBRANCH  10  15
BRANCH   2  23
ATOM     23  CA  UNL     1      37.387 -24.766 -13.905  0.00  0.00    +0.109 C 
BRANCH  23  24
ATOM     24  C   UNL     1      37.994 -26.078 -14.420  0.00  0.00    +0.023 C 
ATOM     25  C   UNL     1      39.496 -25.978 -14.658  0.00  0.00    +0.002 C 
ENDBRANCH  23  24
BRANCH  23  26
ATOM     26  C   UNL     1      38.008 -24.368 -12.566  0.00  0.00    +0.157 C 
BRANCH  26  27
ATOM     27  O   UNL     1      37.367 -25.084 -11.517  0.00  0.00    -0.380 OA
ATOM     28  H   UNL     1      36.894 -24.462 -10.942  0.00  0.00    +0.211 HD
ENDBRANCH  26  27
ENDBRANCH  23  26
ENDBRANCH   2  23
TORSDOF 8
ENDMDL
MODEL 3
REMARK VINA RESULT:      -9.1      1.853      6.399
REMARK  Name = 4369502
REMARK  8 active torsions:
REMARK  status: ('A' for Active; 'I' for Inactive)
REMARK    1  A    between atoms: N_1  and  C_12
REMARK    2  A    between atoms: N_2  and  CA_23
REMARK    3  A    between atoms: C_10  and  O_15
REMARK    4  A    between atoms: O_15  and  C_16
REMARK    5  A    between atoms: C_16  and  C_17
REMARK    6  A    between atoms: CA_23  and  C_24
REMARK    7  A    between atoms: CA_23  and  C_26
REMARK    8  A    between atoms: C_26  and  O_27
REMARK                            x       y       z     vdW  Elec       q    Type
REMARK                         _______ _______ _______ _____ _____    ______ ____
ROOT
ATOM      1  N   UNL     1      34.523 -21.182 -19.845  0.00  0.00    -0.262 N 
ATOM      2  N   UNL     1      31.147 -22.972 -17.022  0.00  0.00    -0.258 N 
ATOM      3  N   UNL     1      32.656 -22.012 -18.531  0.00  0.00    -0.311 NA
ATOM      4  N   UNL     1      36.221 -21.980 -18.643  0.00  0.00    -0.239 NA
ATOM      5  N   UNL     1      33.430 -23.276 -16.593  0.00  0.00    -0.289 NA
ATOM      6  C   UNL     1      33.961 -21.854 -18.797  0.00  0.00    +0.222 C 
ATOM      7  C   UNL     1      35.031 -22.341 -18.064  0.00  0.00    +0.190 C 
ATOM      8  C   UNL     1      32.458 -22.745 -17.396  0.00  0.00    +0.204 C 
ATOM      9  C   UNL     1      35.882 -21.286 -19.709  0.00  0.00    +0.222 C 
ATOM     10  C   UNL     1      34.728 -23.077 -16.923  0.00  0.00    +0.311 C 
ATOM     11  H   UNL     1      30.430 -22.599 -17.584  0.00  0.00    +0.160 HD
ENDROOT
BRANCH   1  12
ATOM     12  C   UNL     1      33.826 -20.490 -20.902  0.00  0.00    +0.077 C 
ATOM     13  C   UNL     1      34.764 -19.598 -21.719  0.00  0.00    +0.022 C 
ATOM     14  C   UNL     1      32.621 -19.708 -20.377  0.00  0.00    +0.022 C 
ENDBRANCH   1  12
BRANCH  10  15
ATOM     15  O   UNL     1      35.698 -23.612 -16.113  0.00  0.00    -0.445 OA
BRANCH  15  16
ATOM     16  C   UNL     1      35.251 -24.377 -15.001  0.00  0.00    +0.235 C 
BRANCH  16  17
ATOM     17  C   UNL     1      36.305 -24.270 -13.944  0.00  0.00    +0.021 C 
ATOM     18  C   UNL     1      36.125 -23.397 -12.874  0.00  0.00    -0.001 C 
ATOM     19  C   UNL     1      37.460 -25.042 -14.036  0.00  0.00    -0.001 C 
ATOM     20  C   UNL     1      37.108 -23.297 -11.889  0.00  0.00    -0.000 C 
ATOM     21  C   UNL     1      38.442 -24.941 -13.051  0.00  0.00    -0.000 C 
ATOM     22  C   UNL     1      38.266 -24.068 -11.977  0.00  0.00    -0.000 C 
ENDBRANCH  16  17
ENDBRANCH  15  16
ENDBRANCH  10  15
BRANCH   2  23
ATOM     23  CA  UNL     1      30.772 -23.733 -15.846  0.00  0.00    +0.109 C 
BRANCH  23  24
ATOM     24  C   UNL     1      29.432 -24.440 -16.089  0.00  0.00    +0.023 C 
ATOM     25  C   UNL     1      28.415 -23.546 -16.790  0.00  0.00    +0.002 C 
ENDBRANCH  23  24
BRANCH  23  26
ATOM     26  C   UNL     1      30.676 -22.780 -14.655  0.00  0.00    +0.157 C 
BRANCH  26  27
ATOM     27  O   UNL     1      31.935 -22.718 -13.995  0.00  0.00    -0.380 OA
ATOM     28  H   UNL     1      31.917 -23.286 -13.209  0.00  0.00    +0.211 HD
ENDBRANCH  26  27
ENDBRANCH  23  26
ENDBRANCH   2  23
TORSDOF 8
ENDMDL
MODEL 4
REMARK VINA RESULT:      -9.0      1.914      6.842
REMARK  Name = 4369502
REMARK  8 active torsions:
REMARK  status: ('A' for Active; 'I' for Inactive)
REMARK    1  A    between atoms: N_1  and  C_12
REMARK    2  A    between atoms: N_2  and  CA_23
REMARK    3  A    between atoms: C_10  and  O_15
REMARK    4  A    between atoms: O_15  and  C_16
REMARK    5  A    between atoms: C_16  and  C_17
REMARK    6  A    between atoms: CA_23  and  C_24
REMARK    7  A    between atoms: CA_23  and  C_26
REMARK    8  A    between atoms: C_26  and  O_27
REMARK                            x       y       z     vdW  Elec       q    Type
REMARK                         _______ _______ _______ _____ _____    ______ ____
ROOT
ATOM      1  N   UNL     1      34.666 -22.514 -18.047  0.00  0.00    -0.262 N 
ATOM      2  N   UNL     1      37.587 -24.006 -14.610  0.00  0.00    -0.258 N 
ATOM      3  N   UNL     1      36.317 -23.200 -16.403  0.00  0.00    -0.311 NA
ATOM      4  N   UNL     1      32.810 -23.242 -17.050  0.00  0.00    -0.239 NA
ATOM      5  N   UNL     1      35.267 -24.315 -14.503  0.00  0.00    -0.289 NA
ATOM      6  C   UNL     1      35.067 -23.088 -16.874  0.00  0.00    +0.222 C 
ATOM      7  C   UNL     1      33.901 -23.533 -16.272  0.00  0.00    +0.190 C 
ATOM      8  C   UNL     1      36.346 -23.833 -15.194  0.00  0.00    +0.204 C 
ATOM      9  C   UNL     1      33.303 -22.631 -18.107  0.00  0.00    +0.222 C 
ATOM     10  C   UNL     1      34.032 -24.168 -15.040  0.00  0.00    +0.311 C 
ATOM     11  H   UNL     1      38.378 -23.668 -15.088  0.00  0.00    +0.160 HD
ENDROOT
BRANCH   1  12
ATOM     12  C   UNL     1      35.510 -21.897 -19.041  0.00  0.00    +0.077 C 
ATOM     13  C   UNL     1      36.728 -21.216 -18.415  0.00  0.00    +0.022 C 
ATOM     14  C   UNL     1      34.729 -20.939 -19.941  0.00  0.00    +0.022 C 
ENDBRANCH   1  12
BRANCH  10  15
ATOM     15  O   UNL     1      32.955 -24.654 -14.344  0.00  0.00    -0.445 OA
BRANCH  15  16
ATOM     16  C   UNL     1      32.135 -23.696 -13.687  0.00  0.00    +0.235 C 
BRANCH  16  17
ATOM     17  C   UNL     1      30.799 -23.726 -14.362  0.00  0.00    +0.021 C 
ATOM     18  C   UNL     1      30.116 -24.932 -14.490  0.00  0.00    -0.001 C 
ATOM     19  C   UNL     1      30.249 -22.548 -14.860  0.00  0.00    -0.001 C 
ATOM     20  C   UNL     1      28.871 -24.960 -15.119  0.00  0.00    -0.000 C 
ATOM     21  C   UNL     1      29.005 -22.576 -15.489  0.00  0.00    -0.000 C 
ATOM     22  C   UNL     1      28.315 -23.783 -15.619  0.00  0.00    -0.000 C 
ENDBRANCH  16  17
ENDBRANCH  15  16
ENDBRANCH  10  15
BRANCH   2  23
ATOM     23  CA  UNL     1      37.783 -24.657 -13.328  0.00  0.00    +0.109 C 
BRANCH  23  24
ATOM     24  C   UNL     1      38.054 -23.603 -12.246  0.00  0.00    +0.023 C 
ATOM     25  C   UNL     1      36.803 -23.240 -11.454  0.00  0.00    +0.002 C 
ENDBRANCH  23  24
BRANCH  23  26
ATOM     26  C   UNL     1      38.958 -25.628 -13.446  0.00  0.00    +0.157 C 
BRANCH  26  27
ATOM     27  O   UNL     1      38.697 -26.561 -14.488  0.00  0.00    -0.380 OA
ATOM     28  H   UNL     1      37.797 -26.911 -14.392  0.00  0.00    +0.211 HD
ENDBRANCH  26  27
ENDBRANCH  23  26
ENDBRANCH   2  23
TORSDOF 8
ENDMDL
MODEL 5
REMARK VINA RESULT:      -8.8      1.569      2.075
REMARK  Name = 4369502
REMARK  8 active torsions:
REMARK  status: ('A' for Active; 'I' for Inactive)
REMARK    1  A    between atoms: N_1  and  C_12
REMARK    2  A    between atoms: N_2  and  CA_23
REMARK    3  A    between atoms: C_10  and  O_15
REMARK    4  A    between atoms: O_15  and  C_16
REMARK    5  A    between atoms: C_16  and  C_17
REMARK    6  A    between atoms: CA_23  and  C_24
REMARK    7  A    between atoms: CA_23  and  C_26
REMARK    8  A    between atoms: C_26  and  O_27
REMARK                            x       y       z     vdW  Elec       q    Type
REMARK                         _______ _______ _______ _____ _____    ______ ____
ROOT
ATOM      1  N   UNL     1      37.553 -24.229 -14.150  0.00  0.00    -0.262 N 
ATOM      2  N   UNL     1      32.848 -23.616 -14.387  0.00  0.00    -0.258 N 
ATOM      3  N   UNL     1      35.133 -24.020 -14.091  0.00  0.00    -0.311 NA
ATOM      4  N   UNL     1      37.982 -23.154 -16.054  0.00  0.00    -0.239 NA
ATOM      5  N   UNL     1      34.302 -22.797 -16.031  0.00  0.00    -0.289 NA
ATOM      6  C   UNL     1      36.343 -23.822 -14.635  0.00  0.00    +0.222 C 
ATOM      7  C   UNL     1      36.631 -23.158 -15.816  0.00  0.00    +0.190 C 
ATOM      8  C   UNL     1      34.141 -23.473 -14.852  0.00  0.00    +0.204 C 
ATOM      9  C   UNL     1      38.506 -23.804 -15.036  0.00  0.00    +0.222 C 
ATOM     10  C   UNL     1      35.553 -22.635 -16.524  0.00  0.00    +0.311 C 
ATOM     11  H   UNL     1      32.707 -24.100 -13.542  0.00  0.00    +0.160 HD
ENDROOT
BRANCH   1  12
ATOM     12  C   UNL     1      37.793 -24.966 -12.933  0.00  0.00    +0.077 C 
ATOM     13  C   UNL     1      37.175 -26.365 -12.980  0.00  0.00    +0.022 C 
ATOM     14  C   UNL     1      37.340 -24.191 -11.694  0.00  0.00    +0.022 C 
ENDBRANCH   1  12
BRANCH  10  15
ATOM     15  O   UNL     1      35.707 -21.956 -17.706  0.00  0.00    -0.445 OA
BRANCH  15  16
ATOM     16  C   UNL     1      34.967 -22.437 -18.820  0.00  0.00    +0.235 C 
BRANCH  16  17
ATOM     17  C   UNL     1      34.669 -21.257 -19.691  0.00  0.00    +0.021 C 
ATOM     18  C   UNL     1      35.715 -20.543 -20.271  0.00  0.00    -0.001 C 
ATOM     19  C   UNL     1      33.348 -20.878 -19.915  0.00  0.00    -0.001 C 
ATOM     20  C   UNL     1      35.436 -19.443 -21.082  0.00  0.00    -0.000 C 
ATOM     21  C   UNL     1      33.071 -19.778 -20.726  0.00  0.00    -0.000 C 
ATOM     22  C   UNL     1      34.115 -19.060 -21.310  0.00  0.00    -0.000 C 
ENDBRANCH  16  17
ENDBRANCH  15  16
ENDBRANCH  10  15
BRANCH   2  23
ATOM     23  CA  UNL     1      31.687 -23.090 -15.080  0.00  0.00    +0.109 C 
BRANCH  23  24
ATOM     24  C   UNL     1      30.405 -23.565 -14.381  0.00  0.00    +0.023 C 
ATOM     25  C   UNL     1      30.683 -24.269 -13.058  0.00  0.00    +0.002 C 
ENDBRANCH  23  24
BRANCH  23  26
ATOM     26  C   UNL     1      31.722 -23.568 -16.531  0.00  0.00    +0.157 C 
BRANCH  26  27
ATOM     27  O   UNL     1      31.476 -22.466 -17.398  0.00  0.00    -0.380 OA
ATOM     28  H   UNL     1      30.756 -21.925 -17.037  0.00  0.00    +0.211 HD
ENDBRANCH  26  27
ENDBRANCH  23  26
ENDBRANCH   2  23
TORSDOF 8
ENDMDL
MODEL 6
REMARK VINA RESULT:      -8.8      1.886      6.944
REMARK  Name = 4369502
REMARK  8 active torsions:
REMARK  status: ('A' for Active; 'I' for Inactive)
REMARK    1  A    between atoms: N_1  and  C_12
REMARK    2  A    between atoms: N_2  and  CA_23
REMARK    3  A    between atoms: C_10  and  O_15
REMARK    4  A    between atoms: O_15  and  C_16
REMARK    5  A    between atoms: C_16  and  C_17
REMARK    6  A    between atoms: CA_23  and  C_24
REMARK    7  A    between atoms: CA_23  and  C_26
REMARK    8  A    between atoms: C_26  and  O_27
REMARK                            x       y       z     vdW  Elec       q    Type
REMARK                         _______ _______ _______ _____ _____    ______ ____
ROOT
ATOM      1  N   UNL     1      34.703 -21.468 -19.152  0.00  0.00    -0.262 N 
ATOM      2  N   UNL     1      37.272 -23.358 -15.630  0.00  0.00    -0.258 N 
ATOM      3  N   UNL     1      36.183 -22.336 -17.432  0.00  0.00    -0.311 NA
ATOM      4  N   UNL     1      32.782 -22.393 -18.505  0.00  0.00    -0.239 NA
ATOM      5  N   UNL     1      34.973 -23.752 -15.855  0.00  0.00    -0.289 NA
ATOM      6  C   UNL     1      34.992 -22.196 -18.033  0.00  0.00    +0.222 C 
ATOM      7  C   UNL     1      33.787 -22.761 -17.648  0.00  0.00    +0.190 C 
ATOM      8  C   UNL     1      36.101 -23.140 -16.331  0.00  0.00    +0.204 C 
ATOM      9  C   UNL     1      33.364 -21.617 -19.395  0.00  0.00    +0.222 C 
ATOM     10  C   UNL     1      33.805 -23.567 -16.513  0.00  0.00    +0.311 C 
ATOM     11  H   UNL     1      38.096 -22.928 -15.954  0.00  0.00    +0.160 HD
ENDROOT
BRANCH   1  12
ATOM     12  C   UNL     1      35.627 -20.685 -19.936  0.00  0.00    +0.077 C 
ATOM     13  C   UNL     1      34.912 -19.859 -21.007  0.00  0.00    +0.022 C 
ATOM     14  C   UNL     1      36.740 -21.545 -20.537  0.00  0.00    +0.022 C 
ENDBRANCH   1  12
BRANCH  10  15
ATOM     15  O   UNL     1      32.678 -24.183 -16.030  0.00  0.00    -0.445 OA
BRANCH  15  16
ATOM     16  C   UNL     1      31.994 -23.526 -14.972  0.00  0.00    +0.235 C 
BRANCH  16  17
ATOM     17  C   UNL     1      30.552 -23.443 -15.367  0.00  0.00    +0.021 C 
ATOM     18  C   UNL     1      29.807 -22.316 -15.032  0.00  0.00    -0.001 C 
ATOM     19  C   UNL     1      29.964 -24.494 -16.065  0.00  0.00    -0.001 C 
ATOM     20  C   UNL     1      28.464 -22.239 -15.401  0.00  0.00    -0.000 C 
ATOM     21  C   UNL     1      28.621 -24.417 -16.432  0.00  0.00    -0.000 C 
ATOM     22  C   UNL     1      27.870 -23.289 -16.100  0.00  0.00    -0.000 C 
ENDBRANCH  16  17
ENDBRANCH  15  16
ENDBRANCH  10  15
BRANCH   2  23
ATOM     23  CA  UNL     1      37.349 -24.184 -14.441  0.00  0.00    +0.109 C 
BRANCH  23  24
ATOM     24  C   UNL     1      37.342 -23.296 -13.189  0.00  0.00    +0.023 C 
ATOM     25  C   UNL     1      38.024 -23.956 -11.997  0.00  0.00    +0.002 C 
ENDBRANCH  23  24
BRANCH  23  26
ATOM     26  C   UNL     1      38.627 -25.020 -14.505  0.00  0.00    +0.157 C 
BRANCH  26  27
ATOM     27  O   UNL     1      38.461 -26.064 -15.458  0.00  0.00    -0.380 OA
ATOM     28  H   UNL     1      37.876 -26.747 -15.092  0.00  0.00    +0.211 HD
ENDBRANCH  26  27
ENDBRANCH  23  26
ENDBRANCH   2  23
TORSDOF 8
ENDMDL
MODEL 7
REMARK VINA RESULT:      -8.4      2.207      7.256
REMARK  Name = 4369502
REMARK  8 active torsions:
REMARK  status: ('A' for Active; 'I' for Inactive)
REMARK    1  A    between atoms: N_1  and  C_12
REMARK    2  A    between atoms: N_2  and  CA_23
REMARK    3  A    between atoms: C_10  and  O_15
REMARK    4  A    between atoms: O_15  and  C_16
REMARK    5  A    between atoms: C_16  and  C_17
REMARK    6  A    between atoms: CA_23  and  C_24
REMARK    7  A    between atoms: CA_23  and  C_26
REMARK    8  A    between atoms: C_26  and  O_27
REMARK                            x       y       z     vdW  Elec       q    Type
REMARK                         _______ _______ _______ _____ _____    ______ ____
ROOT
ATOM      1  N   UNL     1      34.735 -20.277 -20.244  0.00  0.00    -0.262 N 
ATOM      2  N   UNL     1      36.639 -22.662 -16.603  0.00  0.00    -0.258 N 
ATOM      3  N   UNL     1      35.886 -21.392 -18.418  0.00  0.00    -0.311 NA
ATOM      4  N   UNL     1      32.734 -21.245 -20.082  0.00  0.00    -0.239 NA
ATOM      5  N   UNL     1      34.421 -22.982 -17.287  0.00  0.00    -0.289 NA
ATOM      6  C   UNL     1      34.822 -21.152 -19.198  0.00  0.00    +0.222 C 
ATOM      7  C   UNL     1      33.571 -21.741 -19.115  0.00  0.00    +0.190 C 
ATOM      8  C   UNL     1      35.613 -22.333 -17.467  0.00  0.00    +0.204 C 
ATOM      9  C   UNL     1      33.462 -20.369 -20.741  0.00  0.00    +0.222 C 
ATOM     10  C   UNL     1      33.389 -22.690 -18.113  0.00  0.00    +0.311 C 
ATOM     11  H   UNL     1      37.506 -22.208 -16.714  0.00  0.00    +0.160 HD
ENDROOT
BRANCH   1  12
ATOM     12  C   UNL     1      35.780 -19.414 -20.739  0.00  0.00    +0.077 C 
ATOM     13  C   UNL     1      35.469 -18.882 -22.139  0.00  0.00    +0.022 C 
ATOM     14  C   UNL     1      37.153 -20.086 -20.683  0.00  0.00    +0.022 C 
ENDBRANCH   1  12
BRANCH  10  15
ATOM     15  O   UNL     1      32.197 -23.345 -17.927  0.00  0.00    -0.445 OA
BRANCH  15  16
ATOM     16  C   UNL     1      31.249 -22.715 -17.076  0.00  0.00    +0.235 C 
BRANCH  16  17
ATOM     17  C   UNL     1      31.207 -23.506 -15.806  0.00  0.00    +0.021 C 
ATOM     18  C   UNL     1      32.077 -23.192 -14.766  0.00  0.00    -0.001 C 
ATOM     19  C   UNL     1      30.298 -24.553 -15.672  0.00  0.00    -0.001 C 
ATOM     20  C   UNL     1      32.037 -23.930 -13.582  0.00  0.00    -0.000 C 
ATOM     21  C   UNL     1      30.259 -25.290 -14.489  0.00  0.00    -0.000 C 
ATOM     22  C   UNL     1      31.129 -24.979 -13.444  0.00  0.00    -0.000 C 
ENDBRANCH  16  17
ENDBRANCH  15  16
ENDBRANCH  10  15
BRANCH   2  23
ATOM     23  CA  UNL     1      36.506 -23.640 -15.540  0.00  0.00    +0.109 C 
BRANCH  23  24
ATOM     24  C   UNL     1      35.821 -22.998 -14.325  0.00  0.00    +0.023 C 
ATOM     25  C   UNL     1      36.485 -23.379 -13.007  0.00  0.00    +0.002 C 
ENDBRANCH  23  24
BRANCH  23  26
ATOM     26  C   UNL     1      37.897 -24.155 -15.170  0.00  0.00    +0.157 C 
BRANCH  26  27
ATOM     27  O   UNL     1      38.876 -23.474 -15.946  0.00  0.00    -0.380 OA
ATOM     28  H   UNL     1      38.511 -22.633 -16.262  0.00  0.00    +0.211 HD
ENDBRANCH  26  27
ENDBRANCH  23  26
ENDBRANCH   2  23
TORSDOF 8
ENDMDL
MODEL 8
REMARK VINA RESULT:      -8.2      9.100     13.083
REMARK  Name = 4369502
REMARK  8 active torsions:
REMARK  status: ('A' for Active; 'I' for Inactive)
REMARK    1  A    between atoms: N_1  and  C_12
REMARK    2  A    between atoms: N_2  and  CA_23
REMARK    3  A    between atoms: C_10  and  O_15
REMARK    4  A    between atoms: O_15  and  C_16
REMARK    5  A    between atoms: C_16  and  C_17
REMARK    6  A    between atoms: CA_23  and  C_24
REMARK    7  A    between atoms: CA_23  and  C_26
REMARK    8  A    between atoms: C_26  and  O_27
REMARK                            x       y       z     vdW  Elec       q    Type
REMARK                         _______ _______ _______ _____ _____    ______ ____
ROOT
ATOM      1  N   UNL     1      34.415 -16.413 -21.646  0.00  0.00    -0.262 N 
ATOM      2  N   UNL     1      34.365 -13.040 -24.991  0.00  0.00    -0.258 N 
ATOM      3  N   UNL     1      34.529 -14.804 -23.462  0.00  0.00    -0.311 NA
ATOM      4  N   UNL     1      32.939 -15.393 -20.324  0.00  0.00    -0.239 NA
ATOM      5  N   UNL     1      33.060 -12.899 -23.051  0.00  0.00    -0.289 NA
ATOM      6  C   UNL     1      34.075 -15.253 -22.282  0.00  0.00    +0.222 C 
ATOM      7  C   UNL     1      33.160 -14.635 -21.446  0.00  0.00    +0.190 C 
ATOM      8  C   UNL     1      33.971 -13.602 -23.792  0.00  0.00    +0.204 C 
ATOM      9  C   UNL     1      33.706 -16.452 -20.475  0.00  0.00    +0.222 C 
ATOM     10  C   UNL     1      32.647 -13.412 -21.868  0.00  0.00    +0.311 C 
ATOM     11  H   UNL     1      35.020 -13.528 -25.541  0.00  0.00    +0.160 HD
ENDROOT
BRANCH   1  12
ATOM     12  C   UNL     1      35.342 -17.415 -22.111  0.00  0.00    +0.077 C 
ATOM     13  C   UNL     1      34.818 -18.152 -23.345  0.00  0.00    +0.022 C 
ATOM     14  C   UNL     1      35.739 -18.389 -20.999  0.00  0.00    +0.022 C 
ENDBRANCH   1  12
BRANCH  10  15
ATOM     15  O   UNL     1      31.734 -12.702 -21.130  0.00  0.00    -0.445 OA
BRANCH  15  16
ATOM     16  C   UNL     1      31.010 -11.688 -21.814  0.00  0.00    +0.235 C 
BRANCH  16  17
ATOM     17  C   UNL     1      31.565 -10.373 -21.363  0.00  0.00    +0.021 C 
ATOM     18  C   UNL     1      31.608 -10.070 -20.004  0.00  0.00    -0.001 C 
ATOM     19  C   UNL     1      32.034  -9.460 -22.303  0.00  0.00    -0.001 C 
ATOM     20  C   UNL     1      32.126  -8.845 -19.584  0.00  0.00    -0.000 C 
ATOM     21  C   UNL     1      32.551  -8.235 -21.883  0.00  0.00    -0.000 C 
ATOM     22  C   UNL     1      32.596  -7.927 -20.522  0.00  0.00    -0.000 C 
ENDBRANCH  16  17
ENDBRANCH  15  16
ENDBRANCH  10  15
BRANCH   2  23
ATOM     23  CA  UNL     1      33.863 -11.771 -25.483  0.00  0.00    +0.109 C 
BRANCH  23  24
ATOM     24  C   UNL     1      33.450 -11.911 -26.955  0.00  0.00    +0.023 C 
ATOM     25  C   UNL     1      33.161 -13.354 -27.350  0.00  0.00    +0.002 C 
ENDBRANCH  23  24
BRANCH  23  26
ATOM     26  C   UNL     1      34.956 -10.715 -25.323  0.00  0.00    +0.157 C 
BRANCH  26  27
ATOM     27  O   UNL     1      35.021 -10.303 -23.963  0.00  0.00    -0.380 OA
ATOM     28  H   UNL     1      35.610 -10.897 -23.472  0.00  0.00    +0.211 HD
ENDBRANCH  26  27
ENDBRANCH  23  26
ENDBRANCH   2  23
TORSDOF 8
ENDMDL
MODEL 9
REMARK VINA RESULT:      -8.2      8.211     12.765
REMARK  Name = 4369502
REMARK  8 active torsions:
REMARK  status: ('A' for Active; 'I' for Inactive)
REMARK    1  A    between atoms: N_1  and  C_12
REMARK    2  A    between atoms: N_2  and  CA_23
REMARK    3  A    between atoms: C_10  and  O_15
REMARK    4  A    between atoms: O_15  and  C_16
REMARK    5  A    between atoms: C_16  and  C_17
REMARK    6  A    between atoms: CA_23  and  C_24
REMARK    7  A    between atoms: CA_23  and  C_26
REMARK    8  A    between atoms: C_26  and  O_27
REMARK                            x       y       z     vdW  Elec       q    Type
REMARK                         _______ _______ _______ _____ _____    ______ ____
ROOT
ATOM      1  N   UNL     1      32.157 -12.798 -20.853  0.00  0.00    -0.262 N 
ATOM      2  N   UNL     1      33.771 -12.111 -25.268  0.00  0.00    -0.258 N 
ATOM      3  N   UNL     1      32.921 -12.248 -23.093  0.00  0.00    -0.311 NA
ATOM      4  N   UNL     1      32.713 -14.955 -20.779  0.00  0.00    -0.239 NA
ATOM      5  N   UNL     1      33.899 -14.191 -24.197  0.00  0.00    -0.289 NA
ATOM      6  C   UNL     1      32.727 -13.083 -22.061  0.00  0.00    +0.222 C 
ATOM      7  C   UNL     1      33.064 -14.425 -21.995  0.00  0.00    +0.190 C 
ATOM      8  C   UNL     1      33.521 -12.877 -24.145  0.00  0.00    +0.204 C 
ATOM      9  C   UNL     1      32.172 -13.953 -20.118  0.00  0.00    +0.222 C 
ATOM     10  C   UNL     1      33.672 -14.977 -23.119  0.00  0.00    +0.311 C 
ATOM     11  H   UNL     1      33.508 -11.163 -25.255  0.00  0.00    +0.160 HD
ENDROOT
BRANCH   1  12
ATOM     12  C   UNL     1      31.636 -11.524 -20.422  0.00  0.00    +0.077 C 
ATOM     13  C   UNL     1      31.513 -11.441 -18.899  0.00  0.00    +0.022 C 
ATOM     14  C   UNL     1      30.316 -11.181 -21.114  0.00  0.00    +0.022 C 
ENDBRANCH   1  12
BRANCH  10  15
ATOM     15  O   UNL     1      34.053 -16.294 -23.177  0.00  0.00    -0.445 OA
BRANCH  15  16
ATOM     16  C   UNL     1      35.327 -16.615 -22.636  0.00  0.00    +0.235 C 
BRANCH  16  17
ATOM     17  C   UNL     1      35.169 -17.891 -21.869  0.00  0.00    +0.021 C 
ATOM     18  C   UNL     1      36.297 -18.584 -21.439  0.00  0.00    -0.001 C 
ATOM     19  C   UNL     1      33.894 -18.378 -21.591  0.00  0.00    -0.001 C 
ATOM     20  C   UNL     1      36.149 -19.773 -20.725  0.00  0.00    -0.000 C 
ATOM     21  C   UNL     1      33.747 -19.567 -20.877  0.00  0.00    -0.000 C 
ATOM     22  C   UNL     1      34.875 -20.265 -20.444  0.00  0.00    -0.000 C 
ENDBRANCH  16  17
ENDBRANCH  15  16
ENDBRANCH  10  15
BRANCH   2  23
ATOM     23  CA  UNL     1      34.403 -12.632 -26.466  0.00  0.00    +0.109 C 
BRANCH  23  24
ATOM     24  C   UNL     1      35.111 -11.496 -27.216  0.00  0.00    +0.023 C 
ATOM     25  C   UNL     1      35.591 -10.387 -26.287  0.00  0.00    +0.002 C 
ENDBRANCH  23  24
BRANCH  23  26
ATOM     26  C   UNL     1      33.333 -13.279 -27.345  0.00  0.00    +0.157 C 
BRANCH  26  27
ATOM     27  O   UNL     1      33.424 -14.695 -27.236  0.00  0.00    -0.380 OA
ATOM     28  H   UNL     1      33.810 -14.930 -26.377  0.00  0.00    +0.211 HD
ENDBRANCH  26  27
ENDBRANCH  23  26
ENDBRANCH   2  23
TORSDOF 8
ENDMDL
