MODEL 1
REMARK VINA RESULT:      -9.1      0.000      0.000
REMARK  Name = 3013848
REMARK  5 active torsions:
REMARK  status: ('A' for Active; 'I' for Inactive)
REMARK    1  A    between atoms: N_5  and  C_12
REMARK    2  A    between atoms: C_6  and  N_20
REMARK    3  A    between atoms: C_11  and  S_24
REMARK    4  A    between atoms: C_15  and  O_18
REMARK    5  A    between atoms: S_24  and  N_27
REMARK                            x       y       z     vdW  Elec       q    Type
REMARK                         _______ _______ _______ _____ _____    ______ ____
ROOT
ATOM      1  S   UNL     1      34.633 -18.178 -23.326  0.00  0.00    +0.082 S 
ATOM      2  S   UNL     1      34.029 -16.176 -25.448  0.00  0.00    -0.048 S 
ATOM      3  O   UNL     1      36.033 -18.294 -23.686  0.00  0.00    -0.149 OA
ATOM      4  O   UNL     1      33.618 -19.051 -23.876  0.00  0.00    -0.149 OA
ATOM      5  N   UNL     1      34.467 -18.076 -21.600  0.00  0.00    -0.192 N 
ATOM      6  C   UNL     1      34.069 -15.593 -21.464  0.00  0.00    -0.015 C 
ATOM      7  C   UNL     1      34.947 -16.780 -20.995  0.00  0.00    +0.099 C 
ATOM      8  C   UNL     1      33.975 -15.474 -22.964  0.00  0.00    -0.013 C 
ATOM      9  C   UNL     1      34.187 -16.544 -23.807  0.00  0.00    +0.150 C 
ATOM     10  C   UNL     1      33.670 -14.300 -23.721  0.00  0.00    +0.022 C 
ATOM     11  C   UNL     1      33.662 -14.541 -25.080  0.00  0.00    +0.152 C 
ENDROOT
BRANCH   5  12
ATOM     12  C   UNL     1      34.825 -19.294 -20.906  0.00  0.00    +0.072 C 
ATOM     13  C   UNL     1      33.826 -20.166 -20.484  0.00  0.00    +0.053 C 
ATOM     14  C   UNL     1      36.165 -19.583 -20.665  0.00  0.00    +0.016 C 
ATOM     15  C   UNL     1      34.171 -21.341 -19.814  0.00  0.00    +0.140 C 
ATOM     16  C   UNL     1      36.509 -20.758 -19.994  0.00  0.00    +0.004 C 
ATOM     17  C   UNL     1      35.513 -21.636 -19.569  0.00  0.00    +0.037 C 
BRANCH  15  18
ATOM     18  O   UNL     1      33.199 -22.197 -19.398  0.00  0.00    -0.471 OA
ATOM     19  C   UNL     1      33.373 -22.806 -18.119  0.00  0.00    +0.252 C 
ENDBRANCH  15  18
ENDBRANCH   5  12
BRANCH   6  20
ATOM     20  N   UNL     1      32.708 -15.718 -20.936  0.00  0.00    +0.387 N 
ATOM     21  C   UNL     1      32.335 -14.525 -20.192  0.00  0.00    -0.105 C 
ATOM     22  H   UNL     1      32.661 -16.527 -20.316  0.00  0.00    -0.084 HD
ATOM     23  H   UNL     1      32.061 -15.834 -21.717  0.00  0.00    -0.084 HD
ENDBRANCH   6  20
BRANCH  11  24
ATOM     24  S   UNL     1      33.359 -13.522 -26.480  0.00  0.00    +0.063 S 
ATOM     25  O   UNL     1      33.619 -12.155 -26.044  0.00  0.00    -0.153 OA
ATOM     26  O   UNL     1      34.140 -14.117 -27.557  0.00  0.00    -0.153 OA
BRANCH  24  27
ATOM     27  N   UNL     1      31.695 -13.634 -26.892  0.00  0.00    -0.203 NA
ATOM     28  H   UNL     1      31.214 -12.783 -26.598  0.00  0.00    +0.144 HD
ATOM     29  H   UNL     1      31.281 -14.438 -26.419  0.00  0.00    +0.144 HD
ENDBRANCH  24  27
ENDBRANCH  11  24
TORSDOF 5
ENDMDL
MODEL 2
REMARK VINA RESULT:      -8.2      9.600     12.142
REMARK  Name = 3013848
REMARK  5 active torsions:
REMARK  status: ('A' for Active; 'I' for Inactive)
REMARK    1  A    between atoms: N_5  and  C_12
REMARK    2  A    between atoms: C_6  and  N_20
REMARK    3  A    between atoms: C_11  and  S_24
REMARK    4  A    between atoms: C_15  and  O_18
REMARK    5  A    between atoms: S_24  and  N_27
REMARK                            x       y       z     vdW  Elec       q    Type
REMARK                         _______ _______ _______ _____ _____    ______ ____
ROOT
ATOM      1  S   UNL     1      32.472 -24.141 -13.748  0.00  0.00    +0.082 S 
ATOM      2  S   UNL     1      35.149 -24.343 -12.459  0.00  0.00    -0.048 S 
ATOM      3  O   UNL     1      31.978 -23.150 -12.812  0.00  0.00    -0.149 OA
ATOM      4  O   UNL     1      32.278 -25.561 -13.545  0.00  0.00    -0.149 OA
ATOM      5  N   UNL     1      32.031 -23.702 -15.371  0.00  0.00    -0.192 N 
ATOM      6  C   UNL     1      34.278 -22.814 -16.081  0.00  0.00    -0.015 C 
ATOM      7  C   UNL     1      32.768 -22.507 -15.922  0.00  0.00    +0.099 C 
ATOM      8  C   UNL     1      34.928 -23.294 -14.808  0.00  0.00    -0.013 C 
ATOM      9  C   UNL     1      34.213 -23.884 -13.788  0.00  0.00    +0.150 C 
ATOM     10  C   UNL     1      36.314 -23.223 -14.464  0.00  0.00    +0.022 C 
ATOM     11  C   UNL     1      36.573 -23.760 -13.219  0.00  0.00    +0.152 C 
ENDROOT
BRANCH   5  12
ATOM     12  C   UNL     1      30.610 -23.769 -15.628  0.00  0.00    +0.072 C 
ATOM     13  C   UNL     1      29.968 -22.697 -16.242  0.00  0.00    +0.053 C 
ATOM     14  C   UNL     1      29.893 -24.904 -15.261  0.00  0.00    +0.016 C 
ATOM     15  C   UNL     1      28.597 -22.761 -16.490  0.00  0.00    +0.140 C 
ATOM     16  C   UNL     1      28.522 -24.968 -15.509  0.00  0.00    +0.004 C 
ATOM     17  C   UNL     1      27.874 -23.896 -16.124  0.00  0.00    +0.037 C 
BRANCH  15  18
ATOM     18  O   UNL     1      27.965 -21.716 -17.090  0.00  0.00    -0.471 OA
ATOM     19  C   UNL     1      26.538 -21.738 -17.098  0.00  0.00    +0.252 C 
ENDBRANCH  15  18
ENDBRANCH   5  12
BRANCH   6  20
ATOM     20  N   UNL     1      34.492 -23.835 -17.109  0.00  0.00    +0.387 N 
ATOM     21  C   UNL     1      33.866 -23.442 -18.361  0.00  0.00    -0.105 C 
ATOM     22  H   UNL     1      34.087 -24.717 -16.796  0.00  0.00    -0.084 HD
ATOM     23  H   UNL     1      35.495 -23.942 -17.263  0.00  0.00    -0.084 HD
ENDBRANCH   6  20
BRANCH  11  24
ATOM     24  S   UNL     1      38.043 -23.957 -12.276  0.00  0.00    +0.063 S 
ATOM     25  O   UNL     1      38.447 -22.613 -11.878  0.00  0.00    -0.153 OA
ATOM     26  O   UNL     1      37.717 -24.961 -11.272  0.00  0.00    -0.153 OA
BRANCH  24  27
ATOM     27  N   UNL     1      39.270 -24.591 -13.298  0.00  0.00    -0.203 NA
ATOM     28  H   UNL     1      39.613 -23.855 -13.915  0.00  0.00    +0.144 HD
ATOM     29  H   UNL     1      38.886 -25.353 -13.859  0.00  0.00    +0.144 HD
ENDBRANCH  24  27
ENDBRANCH  11  24
TORSDOF 5
ENDMDL
MODEL 3
REMARK VINA RESULT:      -7.9      8.832     11.152
REMARK  Name = 3013848
REMARK  5 active torsions:
REMARK  status: ('A' for Active; 'I' for Inactive)
REMARK    1  A    between atoms: N_5  and  C_12
REMARK    2  A    between atoms: C_6  and  N_20
REMARK    3  A    between atoms: C_11  and  S_24
REMARK    4  A    between atoms: C_15  and  O_18
REMARK    5  A    between atoms: S_24  and  N_27
REMARK                            x       y       z     vdW  Elec       q    Type
REMARK                         _______ _______ _______ _____ _____    ______ ____
ROOT
ATOM      1  S   UNL     1      33.066 -23.952 -13.515  0.00  0.00    +0.082 S 
ATOM      2  S   UNL     1      30.291 -23.445 -14.473  0.00  0.00    -0.048 S 
ATOM      3  O   UNL     1      32.785 -25.310 -13.094  0.00  0.00    -0.149 OA
ATOM      4  O   UNL     1      32.949 -22.823 -12.615  0.00  0.00    -0.149 OA
ATOM      5  N   UNL     1      34.581 -23.890 -14.363  0.00  0.00    -0.192 N 
ATOM      6  C   UNL     1      33.636 -23.759 -16.694  0.00  0.00    -0.015 C 
ATOM      7  C   UNL     1      34.567 -24.534 -15.727  0.00  0.00    +0.099 C 
ATOM      8  C   UNL     1      32.231 -23.597 -16.170  0.00  0.00    -0.013 C 
ATOM      9  C   UNL     1      31.930 -23.651 -14.826  0.00  0.00    +0.150 C 
ATOM     10  C   UNL     1      31.044 -23.375 -16.935  0.00  0.00    +0.022 C 
ATOM     11  C   UNL     1      29.921 -23.269 -16.139  0.00  0.00    +0.152 C 
ENDROOT
BRANCH   5  12
ATOM     12  C   UNL     1      35.730 -24.157 -13.526  0.00  0.00    +0.072 C 
ATOM     13  C   UNL     1      36.695 -25.066 -13.949  0.00  0.00    +0.053 C 
ATOM     14  C   UNL     1      35.862 -23.504 -12.304  0.00  0.00    +0.016 C 
ATOM     15  C   UNL     1      37.803 -25.325 -13.142  0.00  0.00    +0.140 C 
ATOM     16  C   UNL     1      36.970 -23.764 -11.497  0.00  0.00    +0.004 C 
ATOM     17  C   UNL     1      37.941 -24.674 -11.916  0.00  0.00    +0.037 C 
BRANCH  15  18
ATOM     18  O   UNL     1      38.749 -26.214 -13.550  0.00  0.00    -0.471 OA
ATOM     19  C   UNL     1      39.916 -25.679 -14.174  0.00  0.00    +0.252 C 
ENDBRANCH  15  18
ENDBRANCH   5  12
BRANCH   6  20
ATOM     20  N   UNL     1      34.172 -22.423 -16.966  0.00  0.00    +0.387 N 
ATOM     21  C   UNL     1      34.586 -22.310 -18.355  0.00  0.00    -0.105 C 
ATOM     22  H   UNL     1      34.976 -22.254 -16.362  0.00  0.00    -0.084 HD
ATOM     23  H   UNL     1      33.443 -21.732 -16.783  0.00  0.00    -0.084 HD
ENDBRANCH   6  20
BRANCH  11  24
ATOM     24  S   UNL     1      28.220 -22.998 -16.490  0.00  0.00    +0.063 S 
ATOM     25  O   UNL     1      27.521 -23.143 -15.218  0.00  0.00    -0.153 OA
ATOM     26  O   UNL     1      28.179 -21.736 -17.218  0.00  0.00    -0.153 OA
BRANCH  24  27
ATOM     27  N   UNL     1      27.669 -24.245 -17.536  0.00  0.00    -0.203 NA
ATOM     28  H   UNL     1      26.952 -24.795 -17.061  0.00  0.00    +0.144 HD
ATOM     29  H   UNL     1      28.451 -24.851 -17.785  0.00  0.00    +0.144 HD
ENDBRANCH  24  27
ENDBRANCH  11  24
TORSDOF 5
ENDMDL
MODEL 4
REMARK VINA RESULT:      -7.7      8.965     11.712
REMARK  Name = 3013848
REMARK  5 active torsions:
REMARK  status: ('A' for Active; 'I' for Inactive)
REMARK    1  A    between atoms: N_5  and  C_12
REMARK    2  A    between atoms: C_6  and  N_20
REMARK    3  A    between atoms: C_11  and  S_24
REMARK    4  A    between atoms: C_15  and  O_18
REMARK    5  A    between atoms: S_24  and  N_27
REMARK                            x       y       z     vdW  Elec       q    Type
REMARK                         _______ _______ _______ _____ _____    ______ ____
ROOT
ATOM      1  S   UNL     1      34.746 -24.726 -14.510  0.00  0.00    +0.082 S 
ATOM      2  S   UNL     1      37.585 -25.625 -14.432  0.00  0.00    -0.048 S 
ATOM      3  O   UNL     1      34.672 -24.484 -13.083  0.00  0.00    -0.149 OA
ATOM      4  O   UNL     1      34.372 -25.994 -15.100  0.00  0.00    -0.149 OA
ATOM      5  N   UNL     1      34.000 -23.418 -15.377  0.00  0.00    -0.192 N 
ATOM      6  C   UNL     1      36.120 -22.260 -16.090  0.00  0.00    -0.015 C 
ATOM      7  C   UNL     1      34.770 -22.120 -15.344  0.00  0.00    +0.099 C 
ATOM      8  C   UNL     1      36.973 -23.393 -15.577  0.00  0.00    -0.013 C 
ATOM      9  C   UNL     1      36.441 -24.479 -14.914  0.00  0.00    +0.150 C 
ATOM     10  C   UNL     1      38.392 -23.525 -15.686  0.00  0.00    +0.022 C 
ATOM     11  C   UNL     1      38.855 -24.692 -15.111  0.00  0.00    +0.152 C 
ENDROOT
BRANCH   5  12
ATOM     12  C   UNL     1      32.569 -23.334 -15.189  0.00  0.00    +0.072 C 
ATOM     13  C   UNL     1      31.752 -22.989 -16.262  0.00  0.00    +0.053 C 
ATOM     14  C   UNL     1      32.019 -23.596 -13.938  0.00  0.00    +0.016 C 
ATOM     15  C   UNL     1      30.371 -22.908 -16.082  0.00  0.00    +0.140 C 
ATOM     16  C   UNL     1      30.638 -23.513 -13.758  0.00  0.00    +0.004 C 
ATOM     17  C   UNL     1      29.814 -23.170 -14.830  0.00  0.00    +0.037 C 
BRANCH  15  18
ATOM     18  O   UNL     1      29.567 -22.571 -17.127  0.00  0.00    -0.471 OA
ATOM     19  C   UNL     1      28.183 -22.902 -17.016  0.00  0.00    +0.252 C 
ENDBRANCH  15  18
ENDBRANCH   5  12
BRANCH   6  20
ATOM     20  N   UNL     1      35.899 -22.474 -17.522  0.00  0.00    +0.387 N 
ATOM     21  C   UNL     1      36.644 -21.504 -18.308  0.00  0.00    -0.105 C 
ATOM     22  H   UNL     1      34.904 -22.377 -17.727  0.00  0.00    -0.084 HD
ATOM     23  H   UNL     1      36.219 -23.412 -17.768  0.00  0.00    -0.084 HD
ENDBRANCH   6  20
BRANCH  11  24
ATOM     24  S   UNL     1      40.457 -25.393 -14.936  0.00  0.00    +0.063 S 
ATOM     25  O   UNL     1      40.667 -26.211 -16.125  0.00  0.00    -0.153 OA
ATOM     26  O   UNL     1      41.335 -24.266 -14.647  0.00  0.00    -0.153 OA
BRANCH  24  27
ATOM     27  N   UNL     1      40.453 -26.439 -13.574  0.00  0.00    -0.203 NA
ATOM     28  H   UNL     1      40.447 -25.884 -12.718  0.00  0.00    +0.144 HD
ATOM     29  H   UNL     1      41.289 -27.025 -13.591  0.00  0.00    +0.144 HD
ENDBRANCH  24  27
ENDBRANCH  11  24
TORSDOF 5
ENDMDL
MODEL 5
REMARK VINA RESULT:      -7.6      5.875     10.836
REMARK  Name = 3013848
REMARK  5 active torsions:
REMARK  status: ('A' for Active; 'I' for Inactive)
REMARK    1  A    between atoms: N_5  and  C_12
REMARK    2  A    between atoms: C_6  and  N_20
REMARK    3  A    between atoms: C_11  and  S_24
REMARK    4  A    between atoms: C_15  and  O_18
REMARK    5  A    between atoms: S_24  and  N_27
REMARK                            x       y       z     vdW  Elec       q    Type
REMARK                         _______ _______ _______ _____ _____    ______ ____
ROOT
ATOM      1  S   UNL     1      36.303 -22.015 -17.402  0.00  0.00    +0.082 S 
ATOM      2  S   UNL     1      37.556 -23.332 -15.042  0.00  0.00    -0.048 S 
ATOM      3  O   UNL     1      37.164 -22.677 -18.362  0.00  0.00    -0.149 OA
ATOM      4  O   UNL     1      36.625 -20.721 -16.837  0.00  0.00    -0.149 OA
ATOM      5  N   UNL     1      34.658 -22.033 -17.962  0.00  0.00    -0.192 N 
ATOM      6  C   UNL     1      33.838 -23.897 -16.481  0.00  0.00    -0.015 C 
ATOM      7  C   UNL     1      33.998 -23.389 -17.936  0.00  0.00    +0.099 C 
ATOM      8  C   UNL     1      35.134 -23.925 -15.711  0.00  0.00    -0.013 C 
ATOM      9  C   UNL     1      36.211 -23.132 -16.045  0.00  0.00    +0.150 C 
ATOM     10  C   UNL     1      35.446 -24.731 -14.572  0.00  0.00    +0.022 C 
ATOM     11  C   UNL     1      36.725 -24.506 -14.106  0.00  0.00    +0.152 C 
ENDROOT
BRANCH   5  12
ATOM     12  C   UNL     1      34.433 -21.219 -19.136  0.00  0.00    +0.072 C 
ATOM     13  C   UNL     1      35.513 -20.624 -19.782  0.00  0.00    +0.053 C 
ATOM     14  C   UNL     1      33.138 -21.034 -19.611  0.00  0.00    +0.016 C 
ATOM     15  C   UNL     1      35.296 -19.838 -20.914  0.00  0.00    +0.140 C 
ATOM     16  C   UNL     1      32.921 -20.247 -20.743  0.00  0.00    +0.004 C 
ATOM     17  C   UNL     1      34.000 -19.650 -21.394  0.00  0.00    +0.037 C 
BRANCH  15  18
ATOM     18  O   UNL     1      36.349 -19.255 -21.549  0.00  0.00    -0.471 OA
ATOM     19  C   UNL     1      36.052 -18.198 -22.461  0.00  0.00    +0.252 C 
ENDBRANCH  15  18
ENDBRANCH   5  12
BRANCH   6  20
ATOM     20  N   UNL     1      32.892 -23.057 -15.742  0.00  0.00    +0.387 N 
ATOM     21  C   UNL     1      31.561 -23.155 -16.317  0.00  0.00    -0.105 C 
ATOM     22  H   UNL     1      33.203 -22.086 -15.782  0.00  0.00    -0.084 HD
ATOM     23  H   UNL     1      32.856 -23.375 -14.773  0.00  0.00    -0.084 HD
ENDBRANCH   6  20
BRANCH  11  24
ATOM     24  S   UNL     1      37.654 -25.174 -12.772  0.00  0.00    +0.063 S 
ATOM     25  O   UNL     1      36.677 -25.732 -11.844  0.00  0.00    -0.153 OA
ATOM     26  O   UNL     1      38.655 -26.029 -13.398  0.00  0.00    -0.153 OA
BRANCH  24  27
ATOM     27  N   UNL     1      38.465 -23.890 -11.969  0.00  0.00    -0.203 NA
ATOM     28  H   UNL     1      39.366 -24.221 -11.623  0.00  0.00    +0.144 HD
ATOM     29  H   UNL     1      37.898 -23.567 -11.184  0.00  0.00    +0.144 HD
ENDBRANCH  24  27
ENDBRANCH  11  24
TORSDOF 5
ENDMDL
MODEL 6
REMARK VINA RESULT:      -7.6      5.727     10.544
REMARK  Name = 3013848
REMARK  5 active torsions:
REMARK  status: ('A' for Active; 'I' for Inactive)
REMARK    1  A    between atoms: N_5  and  C_12
REMARK    2  A    between atoms: C_6  and  N_20
REMARK    3  A    between atoms: C_11  and  S_24
REMARK    4  A    between atoms: C_15  and  O_18
REMARK    5  A    between atoms: S_24  and  N_27
REMARK                            x       y       z     vdW  Elec       q    Type
REMARK                         _______ _______ _______ _____ _____    ______ ____
ROOT
ATOM      1  S   UNL     1      33.524 -10.329 -23.981  0.00  0.00    +0.082 S 
ATOM      2  S   UNL     1      33.904 -13.171 -23.172  0.00  0.00    -0.048 S 
ATOM      3  O   UNL     1      32.964 -10.662 -25.276  0.00  0.00    -0.149 OA
ATOM      4  O   UNL     1      34.940 -10.096 -23.788  0.00  0.00    -0.149 OA
ATOM      5  N   UNL     1      32.600  -9.059 -23.239  0.00  0.00    -0.192 N 
ATOM      6  C   UNL     1      31.317 -10.502 -21.622  0.00  0.00    -0.015 C 
ATOM      7  C   UNL     1      31.226  -9.469 -22.773  0.00  0.00    +0.099 C 
ATOM      8  C   UNL     1      32.141 -11.716 -21.971  0.00  0.00    -0.013 C 
ATOM      9  C   UNL     1      33.108 -11.697 -22.954  0.00  0.00    +0.150 C 
ATOM     10  C   UNL     1      32.063 -13.014 -21.379  0.00  0.00    +0.022 C 
ATOM     11  C   UNL     1      32.966 -13.898 -21.933  0.00  0.00    +0.152 C 
ENDROOT
BRANCH   5  12
ATOM     12  C   UNL     1      32.708  -7.786 -23.916  0.00  0.00    +0.072 C 
ATOM     13  C   UNL     1      31.594  -6.956 -24.008  0.00  0.00    +0.053 C 
ATOM     14  C   UNL     1      33.924  -7.400 -24.473  0.00  0.00    +0.016 C 
ATOM     15  C   UNL     1      31.697  -5.728 -24.662  0.00  0.00    +0.140 C 
ATOM     16  C   UNL     1      34.026  -6.172 -25.128  0.00  0.00    +0.004 C 
ATOM     17  C   UNL     1      32.913  -5.336 -25.222  0.00  0.00    +0.037 C 
BRANCH  15  18
ATOM     18  O   UNL     1      30.611  -4.914 -24.754  0.00  0.00    -0.471 OA
ATOM     19  C   UNL     1      30.857  -3.526 -24.976  0.00  0.00    +0.252 C 
ENDBRANCH  15  18
ENDBRANCH   5  12
BRANCH   6  20
ATOM     20  N   UNL     1      31.901  -9.890 -20.425  0.00  0.00    +0.387 N 
ATOM     21  C   UNL     1      31.191 -10.319 -19.231  0.00  0.00    -0.105 C 
ATOM     22  H   UNL     1      31.841  -8.875 -20.503  0.00  0.00    -0.084 HD
ATOM     23  H   UNL     1      32.876 -10.181 -20.349  0.00  0.00    -0.084 HD
ENDBRANCH   6  20
BRANCH  11  24
ATOM     24  S   UNL     1      33.335 -15.590 -21.628  0.00  0.00    +0.063 S 
ATOM     25  O   UNL     1      32.155 -16.145 -20.975  0.00  0.00    -0.153 OA
ATOM     26  O   UNL     1      33.790 -16.114 -22.909  0.00  0.00    -0.153 OA
BRANCH  24  27
ATOM     27  N   UNL     1      34.640 -15.675 -20.513  0.00  0.00    -0.203 NA
ATOM     28  H   UNL     1      34.651 -14.833 -19.938  0.00  0.00    +0.144 HD
ATOM     29  H   UNL     1      35.520 -15.748 -21.024  0.00  0.00    +0.144 HD
ENDBRANCH  24  27
ENDBRANCH  11  24
TORSDOF 5
ENDMDL
MODEL 7
REMARK VINA RESULT:      -7.6      3.970      5.414
REMARK  Name = 3013848
REMARK  5 active torsions:
REMARK  status: ('A' for Active; 'I' for Inactive)
REMARK    1  A    between atoms: N_5  and  C_12
REMARK    2  A    between atoms: C_6  and  N_20
REMARK    3  A    between atoms: C_11  and  S_24
REMARK    4  A    between atoms: C_15  and  O_18
REMARK    5  A    between atoms: S_24  and  N_27
REMARK                            x       y       z     vdW  Elec       q    Type
REMARK                         _______ _______ _______ _____ _____    ______ ____
ROOT
ATOM      1  S   UNL     1      33.268 -15.113 -21.596  0.00  0.00    +0.082 S 
ATOM      2  S   UNL     1      32.365 -12.651 -20.181  0.00  0.00    -0.048 S 
ATOM      3  O   UNL     1      32.049 -15.846 -21.319  0.00  0.00    -0.149 OA
ATOM      4  O   UNL     1      34.423 -15.176 -20.726  0.00  0.00    -0.149 OA
ATOM      5  N   UNL     1      33.747 -15.352 -23.249  0.00  0.00    -0.192 N 
ATOM      6  C   UNL     1      32.945 -13.136 -24.137  0.00  0.00    -0.015 C 
ATOM      7  C   UNL     1      32.861 -14.678 -24.266  0.00  0.00    +0.099 C 
ATOM      8  C   UNL     1      32.634 -12.634 -22.749  0.00  0.00    -0.013 C 
ATOM      9  C   UNL     1      32.771 -13.424 -21.628  0.00  0.00    +0.150 C 
ATOM     10  C   UNL     1      32.172 -11.332 -22.384  0.00  0.00    +0.022 C 
ATOM     11  C   UNL     1      31.990 -11.203 -21.022  0.00  0.00    +0.152 C 
ENDROOT
BRANCH   5  12
ATOM     12  C   UNL     1      34.171 -16.703 -23.544  0.00  0.00    +0.072 C 
ATOM     13  C   UNL     1      34.520 -17.559 -22.503  0.00  0.00    +0.053 C 
ATOM     14  C   UNL     1      34.227 -17.137 -24.865  0.00  0.00    +0.016 C 
ATOM     15  C   UNL     1      34.929 -18.863 -22.788  0.00  0.00    +0.140 C 
ATOM     16  C   UNL     1      34.637 -18.440 -25.148  0.00  0.00    +0.004 C 
ATOM     17  C   UNL     1      34.988 -19.303 -24.110  0.00  0.00    +0.037 C 
BRANCH  15  18
ATOM     18  O   UNL     1      35.272 -19.704 -21.774  0.00  0.00    -0.471 OA
ATOM     19  C   UNL     1      34.289 -19.945 -20.769  0.00  0.00    +0.252 C 
ENDBRANCH  15  18
ENDBRANCH   5  12
BRANCH   6  20
ATOM     20  N   UNL     1      34.283 -12.660 -24.499  0.00  0.00    +0.387 N 
ATOM     21  C   UNL     1      34.196 -11.502 -25.373  0.00  0.00    -0.105 C 
ATOM     22  H   UNL     1      34.786 -13.406 -24.980  0.00  0.00    -0.084 HD
ATOM     23  H   UNL     1      34.779 -12.393 -23.648  0.00  0.00    -0.084 HD
ENDBRANCH   6  20
BRANCH  11  24
ATOM     24  S   UNL     1      31.455  -9.877 -20.000  0.00  0.00    +0.063 S 
ATOM     25  O   UNL     1      31.438  -8.695 -20.854  0.00  0.00    -0.153 OA
ATOM     26  O   UNL     1      30.230 -10.354 -19.370  0.00  0.00    -0.153 OA
BRANCH  24  27
ATOM     27  N   UNL     1      32.630  -9.620 -18.773  0.00  0.00    -0.203 NA
ATOM     28  H   UNL     1      33.242  -8.851 -19.045  0.00  0.00    +0.144 HD
ATOM     29  H   UNL     1      33.184 -10.468 -18.650  0.00  0.00    +0.144 HD
ENDBRANCH  24  27
ENDBRANCH  11  24
TORSDOF 5
ENDMDL
MODEL 8
REMARK VINA RESULT:      -7.5      5.392     10.010
REMARK  Name = 3013848
REMARK  5 active torsions:
REMARK  status: ('A' for Active; 'I' for Inactive)
REMARK    1  A    between atoms: N_5  and  C_12
REMARK    2  A    between atoms: C_6  and  N_20
REMARK    3  A    between atoms: C_11  and  S_24
REMARK    4  A    between atoms: C_15  and  O_18
REMARK    5  A    between atoms: S_24  and  N_27
REMARK                            x       y       z     vdW  Elec       q    Type
REMARK                         _______ _______ _______ _____ _____    ______ ____
ROOT
ATOM      1  S   UNL     1      33.079 -10.282 -23.508  0.00  0.00    +0.082 S 
ATOM      2  S   UNL     1      33.993 -13.065 -24.051  0.00  0.00    -0.048 S 
ATOM      3  O   UNL     1      32.381 -10.151 -24.772  0.00  0.00    -0.149 OA
ATOM      4  O   UNL     1      34.458  -9.873 -23.339  0.00  0.00    -0.149 OA
ATOM      5  N   UNL     1      32.103  -9.647 -22.219  0.00  0.00    -0.192 N 
ATOM      6  C   UNL     1      31.311 -11.855 -21.302  0.00  0.00    -0.015 C 
ATOM      7  C   UNL     1      30.892 -10.478 -21.877  0.00  0.00    +0.099 C 
ATOM      8  C   UNL     1      32.241 -12.623 -22.207  0.00  0.00    -0.013 C 
ATOM      9  C   UNL     1      33.032 -12.005 -23.152  0.00  0.00    +0.150 C 
ATOM     10  C   UNL     1      32.447 -14.037 -22.236  0.00  0.00    +0.022 C 
ATOM     11  C   UNL     1      33.375 -14.411 -23.187  0.00  0.00    +0.152 C 
ENDROOT
BRANCH   5  12
ATOM     12  C   UNL     1      31.916  -8.214 -22.279  0.00  0.00    +0.072 C 
ATOM     13  C   UNL     1      31.435  -7.629 -23.447  0.00  0.00    +0.053 C 
ATOM     14  C   UNL     1      32.219  -7.430 -21.170  0.00  0.00    +0.016 C 
ATOM     15  C   UNL     1      31.255  -6.247 -23.506  0.00  0.00    +0.140 C 
ATOM     16  C   UNL     1      32.040  -6.047 -21.229  0.00  0.00    +0.004 C 
ATOM     17  C   UNL     1      31.558  -5.456 -22.397  0.00  0.00    +0.037 C 
BRANCH  15  18
ATOM     18  O   UNL     1      30.786  -5.670 -24.646  0.00  0.00    -0.471 OA
ATOM     19  C   UNL     1      31.151  -4.311 -24.883  0.00  0.00    +0.252 C 
ENDBRANCH  15  18
ENDBRANCH   5  12
BRANCH   6  20
ATOM     20  N   UNL     1      31.975 -11.693 -20.006  0.00  0.00    +0.387 N 
ATOM     21  C   UNL     1      31.216 -10.796 -19.150  0.00  0.00    -0.105 C 
ATOM     22  H   UNL     1      32.907 -11.306 -20.152  0.00  0.00    -0.084 HD
ATOM     23  H   UNL     1      32.038 -12.605 -19.553  0.00  0.00    -0.084 HD
ENDBRANCH   6  20
BRANCH  11  24
ATOM     24  S   UNL     1      34.032 -15.966 -23.680  0.00  0.00    +0.063 S 
ATOM     25  O   UNL     1      33.638 -16.913 -22.643  0.00  0.00    -0.153 OA
ATOM     26  O   UNL     1      33.588 -16.145 -25.056  0.00  0.00    -0.153 OA
BRANCH  24  27
ATOM     27  N   UNL     1      35.747 -15.865 -23.672  0.00  0.00    -0.203 NA
ATOM     28  H   UNL     1      36.033 -14.923 -23.940  0.00  0.00    +0.144 HD
ATOM     29  H   UNL     1      36.130 -16.538 -24.336  0.00  0.00    +0.144 HD
ENDBRANCH  24  27
ENDBRANCH  11  24
TORSDOF 5
ENDMDL
MODEL 9
REMARK VINA RESULT:      -7.1      4.378      6.445
REMARK  Name = 3013848
REMARK  5 active torsions:
REMARK  status: ('A' for Active; 'I' for Inactive)
REMARK    1  A    between atoms: N_5  and  C_12
REMARK    2  A    between atoms: C_6  and  N_20
REMARK    3  A    between atoms: C_11  and  S_24
REMARK    4  A    between atoms: C_15  and  O_18
REMARK    5  A    between atoms: S_24  and  N_27
REMARK                            x       y       z     vdW  Elec       q    Type
REMARK                         _______ _______ _______ _____ _____    ______ ____
ROOT
ATOM      1  S   UNL     1      32.975 -13.098 -22.723  0.00  0.00    +0.082 S 
ATOM      2  S   UNL     1      32.088 -10.391 -21.850  0.00  0.00    -0.048 S 
ATOM      3  O   UNL     1      31.627 -13.617 -22.845  0.00  0.00    -0.149 OA
ATOM      4  O   UNL     1      33.746 -13.227 -21.504  0.00  0.00    -0.149 OA
ATOM      5  N   UNL     1      33.929 -13.586 -24.091  0.00  0.00    -0.192 N 
ATOM      6  C   UNL     1      33.860 -11.391 -25.325  0.00  0.00    -0.015 C 
ATOM      7  C   UNL     1      33.562 -12.911 -25.389  0.00  0.00    +0.099 C 
ATOM      8  C   UNL     1      33.195 -10.699 -24.162  0.00  0.00    -0.013 C 
ATOM      9  C   UNL     1      32.813 -11.370 -23.020  0.00  0.00    +0.150 C 
ATOM     10  C   UNL     1      32.868  -9.312 -24.054  0.00  0.00    +0.022 C 
ATOM     11  C   UNL     1      32.267  -9.008 -22.850  0.00  0.00    +0.152 C 
ENDROOT
BRANCH   5  12
ATOM     12  C   UNL     1      34.190 -15.007 -24.144  0.00  0.00    +0.072 C 
ATOM     13  C   UNL     1      34.815 -15.635 -23.071  0.00  0.00    +0.053 C 
ATOM     14  C   UNL     1      33.814 -15.737 -25.268  0.00  0.00    +0.016 C 
ATOM     15  C   UNL     1      35.067 -17.006 -23.122  0.00  0.00    +0.140 C 
ATOM     16  C   UNL     1      34.066 -17.108 -25.319  0.00  0.00    +0.004 C 
ATOM     17  C   UNL     1      34.693 -17.743 -24.246  0.00  0.00    +0.037 C 
BRANCH  15  18
ATOM     18  O   UNL     1      35.679 -17.625 -22.076  0.00  0.00    -0.471 OA
ATOM     19  C   UNL     1      35.308 -18.978 -21.814  0.00  0.00    +0.252 C 
ENDBRANCH  15  18
ENDBRANCH   5  12
BRANCH   6  20
ATOM     20  N   UNL     1      35.303 -11.153 -25.227  0.00  0.00    +0.387 N 
ATOM     21  C   UNL     1      35.753 -10.282 -26.301  0.00  0.00    -0.105 C 
ATOM     22  H   UNL     1      35.796 -12.043 -25.290  0.00  0.00    -0.084 HD
ATOM     23  H   UNL     1      35.502 -10.702 -24.333  0.00  0.00    -0.084 HD
ENDBRANCH   6  20
BRANCH  11  24
ATOM     24  S   UNL     1      31.657  -7.514 -22.153  0.00  0.00    +0.063 S 
ATOM     25  O   UNL     1      30.415  -7.220 -22.859  0.00  0.00    -0.153 OA
ATOM     26  O   UNL     1      31.654  -7.741 -20.713  0.00  0.00    -0.153 OA
BRANCH  24  27
ATOM     27  N   UNL     1      32.769  -6.252 -22.500  0.00  0.00    -0.203 NA
ATOM     28  H   UNL     1      33.584  -6.339 -21.892  0.00  0.00    +0.144 HD
ATOM     29  H   UNL     1      32.321  -5.349 -22.338  0.00  0.00    +0.144 HD
ENDBRANCH  24  27
ENDBRANCH  11  24
TORSDOF 5
ENDMDL
