MODEL 1
REMARK VINA RESULT:      -5.3      0.000      0.000
REMARK  Name = 5288385
REMARK  5 active torsions:
REMARK  status: ('A' for Active; 'I' for Inactive)
REMARK    1  A    between atoms: C_1  and  C_2
REMARK    2  A    between atoms: C_1  and  C_8
REMARK    3  A    between atoms: C_2  and  N_5
REMARK    4  A    between atoms: C_8  and  C_10
REMARK    5  A    between atoms: C_10  and  O_11
REMARK                            x       y       z     vdW  Elec       q    Type
REMARK                         _______ _______ _______ _____ _____    ______ ____
ROOT
ATOM      1  C   UNL     1      35.083 -22.131 -19.769  0.00  0.00    +0.052 C 
ENDROOT
BRANCH   1   2
ATOM      2  C   UNL     1      33.681 -21.632 -19.488  0.00  0.00    +0.015 C 
ATOM      3  C   UNL     1      33.155 -20.541 -20.080  0.00  0.00    -0.016 C 
ATOM      4  C   UNL     1      33.802 -19.638 -21.082  0.00  0.00    +0.032 C 
BRANCH   2   5
ATOM      5  N   UNL     1      32.981 -22.360 -18.559  0.00  0.00    -0.360 N 
ATOM      6  H   UNL     1      33.454 -22.990 -17.968  0.00  0.00    +0.142 HD
ATOM      7  H   UNL     1      32.005 -22.253 -18.483  0.00  0.00    +0.142 HD
ENDBRANCH   2   5
ENDBRANCH   1   2
BRANCH   1   8
ATOM      8  C   UNL     1      36.144 -21.260 -19.095  0.00  0.00    +0.115 C 
BRANCH   8  10
ATOM      9  O   UNL     1      35.944 -22.691 -17.135  0.00  0.00    -0.250 OA
ATOM     10  C   UNL     1      36.411 -21.697 -17.672  0.00  0.00    +0.314 C 
BRANCH  10  11
ATOM     11  O   UNL     1      37.251 -20.836 -17.038  0.00  0.00    -0.480 OA
ATOM     12  H   UNL     1      38.171 -20.870 -17.210  0.00  0.00    +0.295 HD
ENDBRANCH  10  11
ENDBRANCH   8  10
ENDBRANCH   1   8
TORSDOF 5
ENDMDL
MODEL 2
REMARK VINA RESULT:      -5.2      4.959      6.013
REMARK  Name = 5288385
REMARK  5 active torsions:
REMARK  status: ('A' for Active; 'I' for Inactive)
REMARK    1  A    between atoms: C_1  and  C_2
REMARK    2  A    between atoms: C_1  and  C_8
REMARK    3  A    between atoms: C_2  and  N_5
REMARK    4  A    between atoms: C_8  and  C_10
REMARK    5  A    between atoms: C_10  and  O_11
REMARK                            x       y       z     vdW  Elec       q    Type
REMARK                         _______ _______ _______ _____ _____    ______ ____
ROOT
ATOM      1  C   UNL     1      34.775 -18.115 -22.007  0.00  0.00    +0.052 C 
ENDROOT
BRANCH   1   2
ATOM      2  C   UNL     1      35.162 -19.201 -21.027  0.00  0.00    +0.015 C 
ATOM      3  C   UNL     1      34.271 -20.064 -20.496  0.00  0.00    -0.016 C 
ATOM      4  C   UNL     1      32.798 -20.132 -20.743  0.00  0.00    +0.032 C 
BRANCH   2   5
ATOM      5  N   UNL     1      36.491 -19.234 -20.690  0.00  0.00    -0.360 N 
ATOM      6  H   UNL     1      37.178 -19.163 -21.391  0.00  0.00    +0.142 HD
ATOM      7  H   UNL     1      36.758 -19.330 -19.747  0.00  0.00    +0.142 HD
ENDBRANCH   2   5
ENDBRANCH   1   2
BRANCH   1   8
ATOM      8  C   UNL     1      35.029 -18.536 -23.455  0.00  0.00    +0.115 C 
BRANCH   8  10
ATOM      9  O   UNL     1      34.594 -17.345 -25.534  0.00  0.00    -0.250 OA
ATOM     10  C   UNL     1      35.037 -17.351 -24.394  0.00  0.00    +0.314 C 
BRANCH  10  11
ATOM     11  O   UNL     1      35.608 -16.262 -23.814  0.00  0.00    -0.480 OA
ATOM     12  H   UNL     1      36.422 -15.932 -24.139  0.00  0.00    +0.295 HD
ENDBRANCH  10  11
ENDBRANCH   8  10
ENDBRANCH   1   8
TORSDOF 5
ENDMDL
MODEL 3
REMARK VINA RESULT:      -5.2      6.188      7.162
REMARK  Name = 5288385
REMARK  5 active torsions:
REMARK  status: ('A' for Active; 'I' for Inactive)
REMARK    1  A    between atoms: C_1  and  C_2
REMARK    2  A    between atoms: C_1  and  C_8
REMARK    3  A    between atoms: C_2  and  N_5
REMARK    4  A    between atoms: C_8  and  C_10
REMARK    5  A    between atoms: C_10  and  O_11
REMARK                            x       y       z     vdW  Elec       q    Type
REMARK                         _______ _______ _______ _____ _____    ______ ____
ROOT
ATOM      1  C   UNL     1      38.080 -25.296 -14.306  0.00  0.00    +0.052 C 
ENDROOT
BRANCH   1   2
ATOM      2  C   UNL     1      37.565 -23.942 -14.748  0.00  0.00    +0.015 C 
ATOM      3  C   UNL     1      36.626 -23.254 -14.067  0.00  0.00    -0.016 C 
ATOM      4  C   UNL     1      35.929 -23.652 -12.805  0.00  0.00    +0.032 C 
BRANCH   2   5
ATOM      5  N   UNL     1      38.105 -23.468 -15.916  0.00  0.00    -0.360 N 
ATOM      6  H   UNL     1      38.570 -22.600 -15.927  0.00  0.00    +0.142 HD
ATOM      7  H   UNL     1      38.028 -23.995 -16.744  0.00  0.00    +0.142 HD
ENDBRANCH   2   5
ENDBRANCH   1   2
BRANCH   1   8
ATOM      8  C   UNL     1      39.507 -25.213 -13.762  0.00  0.00    +0.115 C 
BRANCH   8  10
ATOM      9  O   UNL     1      41.284 -26.838 -14.120  0.00  0.00    -0.250 OA
ATOM     10  C   UNL     1      40.470 -26.047 -14.575  0.00  0.00    +0.314 C 
BRANCH  10  11
ATOM     11  O   UNL     1      40.326 -25.814 -15.907  0.00  0.00    -0.480 OA
ATOM     12  H   UNL     1      40.701 -26.406 -16.528  0.00  0.00    +0.295 HD
ENDBRANCH  10  11
ENDBRANCH   8  10
ENDBRANCH   1   8
TORSDOF 5
ENDMDL
MODEL 4
REMARK VINA RESULT:      -5.2      7.172      7.965
REMARK  Name = 5288385
REMARK  5 active torsions:
REMARK  status: ('A' for Active; 'I' for Inactive)
REMARK    1  A    between atoms: C_1  and  C_2
REMARK    2  A    between atoms: C_1  and  C_8
REMARK    3  A    between atoms: C_2  and  N_5
REMARK    4  A    between atoms: C_8  and  C_10
REMARK    5  A    between atoms: C_10  and  O_11
REMARK                            x       y       z     vdW  Elec       q    Type
REMARK                         _______ _______ _______ _____ _____    ______ ____
ROOT
ATOM      1  C   UNL     1      30.201 -23.738 -15.736  0.00  0.00    +0.052 C 
ENDROOT
BRANCH   1   2
ATOM      2  C   UNL     1      30.120 -24.773 -14.634  0.00  0.00    +0.015 C 
ATOM      3  C   UNL     1      31.163 -25.080 -13.834  0.00  0.00    -0.016 C 
ATOM      4  C   UNL     1      32.541 -24.500 -13.861  0.00  0.00    +0.032 C 
BRANCH   2   5
ATOM      5  N   UNL     1      28.909 -25.405 -14.517  0.00  0.00    -0.360 N 
ATOM      6  H   UNL     1      28.083 -24.876 -14.438  0.00  0.00    +0.142 HD
ATOM      7  H   UNL     1      28.865 -26.389 -14.511  0.00  0.00    +0.142 HD
ENDBRANCH   2   5
ENDBRANCH   1   2
BRANCH   1   8
ATOM      8  C   UNL     1      29.046 -22.739 -15.665  0.00  0.00    +0.115 C 
BRANCH   8  10
ATOM      9  O   UNL     1      27.797 -23.971 -17.352  0.00  0.00    -0.250 OA
ATOM     10  C   UNL     1      28.080 -22.910 -16.815  0.00  0.00    +0.314 C 
BRANCH  10  11
ATOM     11  O   UNL     1      27.546 -21.719 -17.196  0.00  0.00    -0.480 OA
ATOM     12  H   UNL     1      26.818 -21.361 -16.727  0.00  0.00    +0.295 HD
ENDBRANCH  10  11
ENDBRANCH   8  10
ENDBRANCH   1   8
TORSDOF 5
ENDMDL
MODEL 5
REMARK VINA RESULT:      -5.2      7.662      8.303
REMARK  Name = 5288385
REMARK  5 active torsions:
REMARK  status: ('A' for Active; 'I' for Inactive)
REMARK    1  A    between atoms: C_1  and  C_2
REMARK    2  A    between atoms: C_1  and  C_8
REMARK    3  A    between atoms: C_2  and  N_5
REMARK    4  A    between atoms: C_8  and  C_10
REMARK    5  A    between atoms: C_10  and  O_11
REMARK                            x       y       z     vdW  Elec       q    Type
REMARK                         _______ _______ _______ _____ _____    ______ ____
ROOT
ATOM      1  C   UNL     1      37.785 -25.743 -12.328  0.00  0.00    +0.052 C 
ENDROOT
BRANCH   1   2
ATOM      2  C   UNL     1      37.687 -25.990 -13.818  0.00  0.00    +0.015 C 
ATOM      3  C   UNL     1      38.752 -25.941 -14.645  0.00  0.00    -0.016 C 
ATOM      4  C   UNL     1      40.176 -25.650 -14.291  0.00  0.00    +0.032 C 
BRANCH   2   5
ATOM      5  N   UNL     1      36.422 -26.244 -14.283  0.00  0.00    -0.360 N 
ATOM      6  H   UNL     1      35.656 -26.218 -13.665  0.00  0.00    +0.142 HD
ATOM      7  H   UNL     1      36.279 -26.453 -15.235  0.00  0.00    +0.142 HD
ENDBRANCH   2   5
ENDBRANCH   1   2
BRANCH   1   8
ATOM      8  C   UNL     1      37.213 -24.380 -11.936  0.00  0.00    +0.115 C 
BRANCH   8  10
ATOM      9  O   UNL     1      35.935 -24.249  -9.868  0.00  0.00    -0.250 OA
ATOM     10  C   UNL     1      35.988 -24.513 -11.061  0.00  0.00    +0.314 C 
BRANCH  10  11
ATOM     11  O   UNL     1      34.921 -24.973 -11.767  0.00  0.00    -0.480 OA
ATOM     12  H   UNL     1      34.400 -24.377 -12.268  0.00  0.00    +0.295 HD
ENDBRANCH  10  11
ENDBRANCH   8  10
ENDBRANCH   1   8
TORSDOF 5
ENDMDL
MODEL 6
REMARK VINA RESULT:      -5.1      5.323      6.469
REMARK  Name = 5288385
REMARK  5 active torsions:
REMARK  status: ('A' for Active; 'I' for Inactive)
REMARK    1  A    between atoms: C_1  and  C_2
REMARK    2  A    between atoms: C_1  and  C_8
REMARK    3  A    between atoms: C_2  and  N_5
REMARK    4  A    between atoms: C_8  and  C_10
REMARK    5  A    between atoms: C_10  and  O_11
REMARK                            x       y       z     vdW  Elec       q    Type
REMARK                         _______ _______ _______ _____ _____    ______ ____
ROOT
ATOM      1  C   UNL     1      37.993 -24.714 -13.868  0.00  0.00    +0.052 C 
ENDROOT
BRANCH   1   2
ATOM      2  C   UNL     1      36.763 -24.633 -14.748  0.00  0.00    +0.015 C 
ATOM      3  C   UNL     1      36.545 -23.626 -15.618  0.00  0.00    -0.016 C 
ATOM      4  C   UNL     1      37.417 -22.441 -15.889  0.00  0.00    +0.032 C 
BRANCH   2   5
ATOM      5  N   UNL     1      35.861 -25.652 -14.580  0.00  0.00    -0.360 N 
ATOM      6  H   UNL     1      35.979 -26.500 -15.065  0.00  0.00    +0.142 HD
ATOM      7  H   UNL     1      35.093 -25.535 -13.974  0.00  0.00    +0.142 HD
ENDBRANCH   2   5
ENDBRANCH   1   2
BRANCH   1   8
ATOM      8  C   UNL     1      38.902 -25.878 -14.264  0.00  0.00    +0.115 C 
BRANCH   8  10
ATOM      9  O   UNL     1      40.991 -24.631 -14.343  0.00  0.00    -0.250 OA
ATOM     10  C   UNL     1      40.200 -25.399 -14.872  0.00  0.00    +0.314 C 
BRANCH  10  11
ATOM     11  O   UNL     1      40.396 -25.931 -16.107  0.00  0.00    -0.480 OA
ATOM     12  H   UNL     1      41.124 -26.501 -16.261  0.00  0.00    +0.295 HD
ENDBRANCH  10  11
ENDBRANCH   8  10
ENDBRANCH   1   8
TORSDOF 5
ENDMDL
MODEL 7
REMARK VINA RESULT:      -5.0      2.967      4.039
REMARK  Name = 5288385
REMARK  5 active torsions:
REMARK  status: ('A' for Active; 'I' for Inactive)
REMARK    1  A    between atoms: C_1  and  C_2
REMARK    2  A    between atoms: C_1  and  C_8
REMARK    3  A    between atoms: C_2  and  N_5
REMARK    4  A    between atoms: C_8  and  C_10
REMARK    5  A    between atoms: C_10  and  O_11
REMARK                            x       y       z     vdW  Elec       q    Type
REMARK                         _______ _______ _______ _____ _____    ______ ____
ROOT
ATOM      1  C   UNL     1      34.168 -19.334 -21.659  0.00  0.00    +0.052 C 
ENDROOT
BRANCH   1   2
ATOM      2  C   UNL     1      35.192 -18.358 -21.119  0.00  0.00    +0.015 C 
ATOM      3  C   UNL     1      34.967 -17.032 -21.027  0.00  0.00    -0.016 C 
ATOM      4  C   UNL     1      33.734 -16.280 -21.414  0.00  0.00    +0.032 C 
BRANCH   2   5
ATOM      5  N   UNL     1      36.389 -18.917 -20.749  0.00  0.00    -0.360 N 
ATOM      6  H   UNL     1      36.655 -19.795 -21.107  0.00  0.00    +0.142 HD
ATOM      7  H   UNL     1      36.983 -18.440 -20.125  0.00  0.00    +0.142 HD
ENDBRANCH   2   5
ENDBRANCH   1   2
BRANCH   1   8
ATOM      8  C   UNL     1      33.217 -19.825 -20.567  0.00  0.00    +0.115 C 
BRANCH   8  10
ATOM      9  O   UNL     1      34.890 -21.244 -19.512  0.00  0.00    -0.250 OA
ATOM     10  C   UNL     1      33.738 -21.066 -19.880  0.00  0.00    +0.314 C 
BRANCH  10  11
ATOM     11  O   UNL     1      32.755 -21.991 -19.713  0.00  0.00    -0.480 OA
ATOM     12  H   UNL     1      32.377 -22.411 -20.460  0.00  0.00    +0.295 HD
ENDBRANCH  10  11
ENDBRANCH   8  10
ENDBRANCH   1   8
TORSDOF 5
ENDMDL
MODEL 8
REMARK VINA RESULT:      -5.0      2.966      3.839
REMARK  Name = 5288385
REMARK  5 active torsions:
REMARK  status: ('A' for Active; 'I' for Inactive)
REMARK    1  A    between atoms: C_1  and  C_2
REMARK    2  A    between atoms: C_1  and  C_8
REMARK    3  A    between atoms: C_2  and  N_5
REMARK    4  A    between atoms: C_8  and  C_10
REMARK    5  A    between atoms: C_10  and  O_11
REMARK                            x       y       z     vdW  Elec       q    Type
REMARK                         _______ _______ _______ _____ _____    ______ ____
ROOT
ATOM      1  C   UNL     1      33.991 -19.488 -21.056  0.00  0.00    +0.052 C 
ENDROOT
BRANCH   1   2
ATOM      2  C   UNL     1      34.873 -18.394 -21.619  0.00  0.00    +0.015 C 
ATOM      3  C   UNL     1      35.219 -18.324 -22.921  0.00  0.00    -0.016 C 
ATOM      4  C   UNL     1      34.832 -19.256 -24.025  0.00  0.00    +0.032 C 
BRANCH   2   5
ATOM      5  N   UNL     1      35.323 -17.480 -20.701  0.00  0.00    -0.360 N 
ATOM      6  H   UNL     1      35.297 -16.518 -20.909  0.00  0.00    +0.142 HD
ATOM      7  H   UNL     1      35.675 -17.785 -19.833  0.00  0.00    +0.142 HD
ENDBRANCH   2   5
ENDBRANCH   1   2
BRANCH   1   8
ATOM      8  C   UNL     1      34.805 -20.561 -20.333  0.00  0.00    +0.115 C 
BRANCH   8  10
ATOM      9  O   UNL     1      32.766 -21.293 -19.222  0.00  0.00    -0.250 OA
ATOM     10  C   UNL     1      33.923 -21.510 -19.554  0.00  0.00    +0.314 C 
BRANCH  10  11
ATOM     11  O   UNL     1      34.577 -22.663 -19.254  0.00  0.00    -0.480 OA
ATOM     12  H   UNL     1      34.816 -22.849 -18.367  0.00  0.00    +0.295 HD
ENDBRANCH  10  11
ENDBRANCH   8  10
ENDBRANCH   1   8
TORSDOF 5
ENDMDL
MODEL 9
REMARK VINA RESULT:      -5.0      7.042      8.301
REMARK  Name = 5288385
REMARK  5 active torsions:
REMARK  status: ('A' for Active; 'I' for Inactive)
REMARK    1  A    between atoms: C_1  and  C_2
REMARK    2  A    between atoms: C_1  and  C_8
REMARK    3  A    between atoms: C_2  and  N_5
REMARK    4  A    between atoms: C_8  and  C_10
REMARK    5  A    between atoms: C_10  and  O_11
REMARK                            x       y       z     vdW  Elec       q    Type
REMARK                         _______ _______ _______ _____ _____    ______ ____
ROOT
ATOM      1  C   UNL     1      34.651 -15.048 -23.374  0.00  0.00    +0.052 C 
ENDROOT
BRANCH   1   2
ATOM      2  C   UNL     1      34.885 -16.175 -22.390  0.00  0.00    +0.015 C 
ATOM      3  C   UNL     1      34.370 -16.182 -21.143  0.00  0.00    -0.016 C 
ATOM      4  C   UNL     1      33.509 -15.142 -20.499  0.00  0.00    +0.032 C 
BRANCH   2   5
ATOM      5  N   UNL     1      35.686 -17.189 -22.848  0.00  0.00    -0.360 N 
ATOM      6  H   UNL     1      36.232 -17.059 -23.657  0.00  0.00    +0.142 HD
ATOM      7  H   UNL     1      35.715 -18.049 -22.368  0.00  0.00    +0.142 HD
ENDBRANCH   2   5
ENDBRANCH   1   2
BRANCH   1   8
ATOM      8  C   UNL     1      33.489 -15.349 -24.321  0.00  0.00    +0.115 C 
BRANCH   8  10
ATOM      9  O   UNL     1      34.750 -16.828 -25.787  0.00  0.00    -0.250 OA
ATOM     10  C   UNL     1      33.968 -15.899 -25.645  0.00  0.00    +0.314 C 
BRANCH  10  11
ATOM     11  O   UNL     1      33.418 -15.225 -26.690  0.00  0.00    -0.480 OA
ATOM     12  H   UNL     1      33.289 -15.659 -27.510  0.00  0.00    +0.295 HD
ENDBRANCH  10  11
ENDBRANCH   8  10
ENDBRANCH   1   8
TORSDOF 5
ENDMDL
