MODEL 1
REMARK VINA RESULT:     -10.0      0.000      0.000
REMARK  Name = 16750192
REMARK  5 active torsions:
REMARK  status: ('A' for Active; 'I' for Inactive)
REMARK    1  A    between atoms: C_3  and  N_13
REMARK    2  A    between atoms: C_9  and  C_29
REMARK    3  A    between atoms: C_14  and  C_19
REMARK    4  A    between atoms: C_19  and  C_23
REMARK    5  A    between atoms: C_19  and  O_24
REMARK                            x       y       z     vdW  Elec       q    Type
REMARK                         _______ _______ _______ _____ _____    ______ ____
ROOT
ATOM      1  O   UNL     1      34.135 -16.655 -25.500  0.00  0.00    -0.270 OA
ATOM      2  N   UNL     1      33.963 -14.362 -25.555  0.00  0.00    -0.280 N 
ATOM      3  C   UNL     1      33.103 -10.730 -23.664  0.00  0.00    +0.048 C 
ATOM      4  C   UNL     1      32.988 -11.926 -22.950  0.00  0.00    +0.016 C 
ATOM      5  C   UNL     1      33.500 -10.744 -24.998  0.00  0.00    +0.016 C 
ATOM      6  C   UNL     1      33.271 -13.156 -23.561  0.00  0.00    +0.019 C 
ATOM      7  C   UNL     1      33.671 -13.151 -24.906  0.00  0.00    +0.051 C 
ATOM      8  C   UNL     1      33.786 -11.956 -25.623  0.00  0.00    +0.016 C 
ATOM      9  C   UNL     1      33.168 -14.452 -22.855  0.00  0.00    +0.077 C 
ATOM     10  C   UNL     1      33.457 -15.586 -23.514  0.00  0.00    +0.062 C 
ATOM     11  C   UNL     1      33.880 -15.592 -24.939  0.00  0.00    +0.250 C 
ATOM     12  H   UNL     1      34.241 -14.332 -26.499  0.00  0.00    +0.155 HD
ENDROOT
BRANCH   3  13
ATOM     13  N   UNL     1      32.819  -9.525 -23.041  0.00  0.00    -0.308 N 
ATOM     14  C   UNL     1      31.814  -9.355 -21.973  0.00  0.00    +0.108 C 
ATOM     15  C   UNL     1      33.237  -8.228 -23.591  0.00  0.00    +0.073 C 
ATOM     16  C   UNL     1      31.646  -7.830 -21.845  0.00  0.00    +0.024 C 
ATOM     17  C   UNL     1      32.077  -7.304 -23.203  0.00  0.00    +0.022 C 
ATOM     18  C   UNL     1      34.560  -7.776 -22.974  0.00  0.00    +0.021 C 
BRANCH  14  19
ATOM     19  C   UNL     1      32.278  -9.945 -20.644  0.00  0.00    +0.224 C 
BRANCH  19  23
ATOM     20  F   UNL     1      30.306 -11.225 -20.884  0.00  0.00    -0.167 F 
ATOM     21  F   UNL     1      31.711 -11.825 -19.331  0.00  0.00    -0.167 F 
ATOM     22  F   UNL     1      30.505 -10.024 -19.072  0.00  0.00    -0.167 F 
ATOM     23  C   UNL     1      31.190 -10.757 -19.974  0.00  0.00    +0.423 C 
ENDBRANCH  19  23
BRANCH  19  24
ATOM     24  O   UNL     1      32.652  -8.888 -19.765  0.00  0.00    -0.376 OA
ATOM     25  H   UNL     1      33.424  -8.426 -20.126  0.00  0.00    +0.211 HD
ENDBRANCH  19  24
ENDBRANCH  14  19
ENDBRANCH   3  13
BRANCH   9  29
ATOM     26  F   UNL     1      31.627 -13.756 -21.229  0.00  0.00    -0.166 F 
ATOM     27  F   UNL     1      32.485 -15.749 -21.021  0.00  0.00    -0.166 F 
ATOM     28  F   UNL     1      33.706 -13.988 -20.615  0.00  0.00    -0.166 F 
ATOM     29  C   UNL     1      32.743 -14.486 -21.415  0.00  0.00    +0.419 C 
ENDBRANCH   9  29
TORSDOF 5
ENDMDL
MODEL 2
REMARK VINA RESULT:      -9.6      6.247      8.863
REMARK  Name = 16750192
REMARK  5 active torsions:
REMARK  status: ('A' for Active; 'I' for Inactive)
REMARK    1  A    between atoms: C_3  and  N_13
REMARK    2  A    between atoms: C_9  and  C_29
REMARK    3  A    between atoms: C_14  and  C_19
REMARK    4  A    between atoms: C_19  and  C_23
REMARK    5  A    between atoms: C_19  and  O_24
REMARK                            x       y       z     vdW  Elec       q    Type
REMARK                         _______ _______ _______ _____ _____    ______ ____
ROOT
ATOM      1  O   UNL     1      32.997 -23.878 -16.975  0.00  0.00    -0.270 OA
ATOM      2  N   UNL     1      32.634 -22.277 -18.586  0.00  0.00    -0.280 N 
ATOM      3  C   UNL     1      34.083 -19.344 -21.194  0.00  0.00    +0.048 C 
ATOM      4  C   UNL     1      34.974 -20.040 -20.373  0.00  0.00    +0.016 C 
ATOM      5  C   UNL     1      32.719 -19.622 -21.146  0.00  0.00    +0.016 C 
ATOM      6  C   UNL     1      34.513 -21.028 -19.490  0.00  0.00    +0.019 C 
ATOM      7  C   UNL     1      33.136 -21.296 -19.456  0.00  0.00    +0.051 C 
ATOM      8  C   UNL     1      32.242 -20.600 -20.277  0.00  0.00    +0.016 C 
ATOM      9  C   UNL     1      35.408 -21.797 -18.599  0.00  0.00    +0.077 C 
ATOM     10  C   UNL     1      34.885 -22.727 -17.782  0.00  0.00    +0.062 C 
ATOM     11  C   UNL     1      33.429 -23.017 -17.738  0.00  0.00    +0.250 C 
ATOM     12  H   UNL     1      31.664 -22.445 -18.581  0.00  0.00    +0.155 HD
ENDROOT
BRANCH   3  13
ATOM     13  N   UNL     1      34.560 -18.371 -22.059  0.00  0.00    -0.308 N 
ATOM     14  C   UNL     1      33.872 -17.097 -22.340  0.00  0.00    +0.108 C 
ATOM     15  C   UNL     1      35.620 -18.634 -23.043  0.00  0.00    +0.073 C 
ATOM     16  C   UNL     1      34.606 -16.527 -23.567  0.00  0.00    +0.024 C 
ATOM     17  C   UNL     1      35.208 -17.754 -24.230  0.00  0.00    +0.022 C 
ATOM     18  C   UNL     1      36.987 -18.239 -22.486  0.00  0.00    +0.021 C 
BRANCH  14  19
ATOM     19  C   UNL     1      33.968 -16.119 -21.171  0.00  0.00    +0.224 C 
BRANCH  19  23
ATOM     20  F   UNL     1      32.113 -14.833 -21.870  0.00  0.00    -0.167 F 
ATOM     21  F   UNL     1      31.733 -16.483 -20.500  0.00  0.00    -0.167 F 
ATOM     22  F   UNL     1      32.711 -14.670 -19.777  0.00  0.00    -0.167 F 
ATOM     23  C   UNL     1      32.623 -15.519 -20.823  0.00  0.00    +0.423 C 
ENDBRANCH  19  23
BRANCH  19  24
ATOM     24  O   UNL     1      34.855 -15.058 -21.517  0.00  0.00    -0.376 OA
ATOM     25  H   UNL     1      34.768 -14.860 -22.462  0.00  0.00    +0.211 HD
ENDBRANCH  19  24
ENDBRANCH  14  19
ENDBRANCH   3  13
BRANCH   9  29
ATOM     26  F   UNL     1      37.535 -22.391 -17.805  0.00  0.00    -0.166 F 
ATOM     27  F   UNL     1      37.385 -21.674 -19.859  0.00  0.00    -0.166 F 
ATOM     28  F   UNL     1      37.157 -20.280 -18.197  0.00  0.00    -0.166 F 
ATOM     29  C   UNL     1      36.886 -21.532 -18.615  0.00  0.00    +0.419 C 
ENDBRANCH   9  29
TORSDOF 5
ENDMDL
MODEL 3
REMARK VINA RESULT:      -9.0      5.836      8.396
REMARK  Name = 16750192
REMARK  5 active torsions:
REMARK  status: ('A' for Active; 'I' for Inactive)
REMARK    1  A    between atoms: C_3  and  N_13
REMARK    2  A    between atoms: C_9  and  C_29
REMARK    3  A    between atoms: C_14  and  C_19
REMARK    4  A    between atoms: C_19  and  C_23
REMARK    5  A    between atoms: C_19  and  O_24
REMARK                            x       y       z     vdW  Elec       q    Type
REMARK                         _______ _______ _______ _____ _____    ______ ____
ROOT
ATOM      1  O   UNL     1      33.805 -23.918 -19.058  0.00  0.00    -0.270 OA
ATOM      2  N   UNL     1      32.996 -21.892 -19.788  0.00  0.00    -0.280 N 
ATOM      3  C   UNL     1      33.645 -17.964 -21.075  0.00  0.00    +0.048 C 
ATOM      4  C   UNL     1      34.735 -18.770 -20.738  0.00  0.00    +0.016 C 
ATOM      5  C   UNL     1      32.348 -18.462 -20.983  0.00  0.00    +0.016 C 
ATOM      6  C   UNL     1      34.544 -20.090 -20.304  0.00  0.00    +0.019 C 
ATOM      7  C   UNL     1      33.231 -20.576 -20.219  0.00  0.00    +0.051 C 
ATOM      8  C   UNL     1      32.137 -19.770 -20.555  0.00  0.00    +0.016 C 
ATOM      9  C   UNL     1      35.659 -20.989 -19.935  0.00  0.00    +0.077 C 
ATOM     10  C   UNL     1      35.390 -22.241 -19.529  0.00  0.00    +0.062 C 
ATOM     11  C   UNL     1      34.002 -22.764 -19.434  0.00  0.00    +0.250 C 
ATOM     12  H   UNL     1      32.065 -22.209 -19.737  0.00  0.00    +0.155 HD
ENDROOT
BRANCH   3  13
ATOM     13  N   UNL     1      33.856 -16.662 -21.501  0.00  0.00    -0.308 N 
ATOM     14  C   UNL     1      34.661 -16.292 -22.680  0.00  0.00    +0.108 C 
ATOM     15  C   UNL     1      33.585 -15.494 -20.651  0.00  0.00    +0.073 C 
ATOM     16  C   UNL     1      34.857 -14.770 -22.549  0.00  0.00    +0.024 C 
ATOM     17  C   UNL     1      34.690 -14.512 -21.061  0.00  0.00    +0.022 C 
ATOM     18  C   UNL     1      32.191 -14.933 -20.925  0.00  0.00    +0.021 C 
BRANCH  14  19
ATOM     19  C   UNL     1      33.951 -16.618 -23.991  0.00  0.00    +0.224 C 
BRANCH  19  23
ATOM     20  F   UNL     1      35.248 -17.224 -25.871  0.00  0.00    -0.167 F 
ATOM     21  F   UNL     1      35.621 -18.288 -24.008  0.00  0.00    -0.167 F 
ATOM     22  F   UNL     1      33.799 -18.685 -25.143  0.00  0.00    -0.167 F 
ATOM     23  C   UNL     1      34.656 -17.715 -24.760  0.00  0.00    +0.423 C 
ENDBRANCH  19  23
BRANCH  19  24
ATOM     24  O   UNL     1      33.914 -15.452 -24.809  0.00  0.00    -0.376 OA
ATOM     25  H   UNL     1      34.321 -14.710 -24.334  0.00  0.00    +0.211 HD
ENDBRANCH  19  24
ENDBRANCH  14  19
ENDBRANCH   3  13
BRANCH   9  29
ATOM     26  F   UNL     1      37.481 -20.008 -18.830  0.00  0.00    -0.166 F 
ATOM     27  F   UNL     1      37.911 -21.493 -20.367  0.00  0.00    -0.166 F 
ATOM     28  F   UNL     1      37.192 -19.514 -20.933  0.00  0.00    -0.166 F 
ATOM     29  C   UNL     1      37.075 -20.496 -20.018  0.00  0.00    +0.419 C 
ENDBRANCH   9  29
TORSDOF 5
ENDMDL
MODEL 4
REMARK VINA RESULT:      -9.0     13.310     15.475
REMARK  Name = 16750192
REMARK  5 active torsions:
REMARK  status: ('A' for Active; 'I' for Inactive)
REMARK    1  A    between atoms: C_3  and  N_13
REMARK    2  A    between atoms: C_9  and  C_29
REMARK    3  A    between atoms: C_14  and  C_19
REMARK    4  A    between atoms: C_19  and  C_23
REMARK    5  A    between atoms: C_19  and  O_24
REMARK                            x       y       z     vdW  Elec       q    Type
REMARK                         _______ _______ _______ _____ _____    ______ ____
ROOT
ATOM      1  O   UNL     1      28.868 -22.337 -17.223  0.00  0.00    -0.270 OA
ATOM      2  N   UNL     1      31.150 -22.616 -17.260  0.00  0.00    -0.280 N 
ATOM      3  C   UNL     1      34.698 -23.842 -15.412  0.00  0.00    +0.048 C 
ATOM      4  C   UNL     1      33.484 -23.967 -14.731  0.00  0.00    +0.016 C 
ATOM      5  C   UNL     1      34.730 -23.311 -16.699  0.00  0.00    +0.016 C 
ATOM      6  C   UNL     1      32.282 -23.564 -15.329  0.00  0.00    +0.019 C 
ATOM      7  C   UNL     1      32.332 -23.033 -16.626  0.00  0.00    +0.051 C 
ATOM      8  C   UNL     1      33.546 -22.905 -17.310  0.00  0.00    +0.016 C 
ATOM      9  C   UNL     1      30.969 -23.674 -14.657  0.00  0.00    +0.077 C 
ATOM     10  C   UNL     1      29.863 -23.264 -15.300  0.00  0.00    +0.062 C 
ATOM     11  C   UNL     1      29.906 -22.698 -16.674  0.00  0.00    +0.250 C 
ATOM     12  H   UNL     1      31.213 -22.246 -18.170  0.00  0.00    +0.155 HD
ENDROOT
BRANCH   3  13
ATOM     13  N   UNL     1      35.876 -24.247 -14.803  0.00  0.00    -0.308 N 
ATOM     14  C   UNL     1      36.467 -23.597 -13.617  0.00  0.00    +0.108 C 
ATOM     15  C   UNL     1      36.838 -25.147 -15.454  0.00  0.00    +0.073 C 
ATOM     16  C   UNL     1      37.887 -24.185 -13.526  0.00  0.00    +0.024 C 
ATOM     17  C   UNL     1      38.189 -24.624 -14.948  0.00  0.00    +0.022 C 
ATOM     18  C   UNL     1      36.594 -26.597 -15.038  0.00  0.00    +0.021 C 
BRANCH  14  19
ATOM     19  C   UNL     1      35.688 -23.905 -12.341  0.00  0.00    +0.224 C 
BRANCH  19  23
ATOM     20  F   UNL     1      35.796 -23.895  -9.980  0.00  0.00    -0.167 F 
ATOM     21  F   UNL     1      37.584 -24.502 -11.065  0.00  0.00    -0.167 F 
ATOM     22  F   UNL     1      36.985 -22.403 -11.042  0.00  0.00    -0.167 F 
ATOM     23  C   UNL     1      36.521 -23.669 -11.099  0.00  0.00    +0.423 C 
ENDBRANCH  19  23
BRANCH  19  24
ATOM     24  O   UNL     1      35.284 -25.271 -12.355  0.00  0.00    -0.376 OA
ATOM     25  H   UNL     1      35.980 -25.818 -11.958  0.00  0.00    +0.211 HD
ENDBRANCH  19  24
ENDBRANCH  14  19
ENDBRANCH   3  13
BRANCH   9  29
ATOM     26  F   UNL     1      31.263 -23.324 -12.356  0.00  0.00    -0.166 F 
ATOM     27  F   UNL     1      29.625 -24.619 -12.981  0.00  0.00    -0.166 F 
ATOM     28  F   UNL     1      31.685 -25.315 -13.136  0.00  0.00    -0.166 F 
ATOM     29  C   UNL     1      30.885 -24.239 -13.269  0.00  0.00    +0.419 C 
ENDBRANCH   9  29
TORSDOF 5
ENDMDL
MODEL 5
REMARK VINA RESULT:      -8.9      2.471      3.107
REMARK  Name = 16750192
REMARK  5 active torsions:
REMARK  status: ('A' for Active; 'I' for Inactive)
REMARK    1  A    between atoms: C_3  and  N_13
REMARK    2  A    between atoms: C_9  and  C_29
REMARK    3  A    between atoms: C_14  and  C_19
REMARK    4  A    between atoms: C_19  and  C_23
REMARK    5  A    between atoms: C_19  and  O_24
REMARK                            x       y       z     vdW  Elec       q    Type
REMARK                         _______ _______ _______ _____ _____    ______ ____
ROOT
ATOM      1  O   UNL     1      34.056 -17.497 -25.253  0.00  0.00    -0.270 OA
ATOM      2  N   UNL     1      33.577 -15.803 -23.774  0.00  0.00    -0.280 N 
ATOM      3  C   UNL     1      32.778 -11.770 -22.993  0.00  0.00    +0.048 C 
ATOM      4  C   UNL     1      33.014 -12.187 -24.306  0.00  0.00    +0.016 C 
ATOM      5  C   UNL     1      32.808 -12.690 -21.947  0.00  0.00    +0.016 C 
ATOM      6  C   UNL     1      33.284 -13.533 -24.593  0.00  0.00    +0.019 C 
ATOM      7  C   UNL     1      33.310 -14.446 -23.528  0.00  0.00    +0.051 C 
ATOM      8  C   UNL     1      33.074 -14.031 -22.213  0.00  0.00    +0.016 C 
ATOM      9  C   UNL     1      33.540 -14.031 -25.962  0.00  0.00    +0.077 C 
ATOM     10  C   UNL     1      33.792 -15.337 -26.151  0.00  0.00    +0.062 C 
ATOM     11  C   UNL     1      33.823 -16.311 -25.030  0.00  0.00    +0.250 C 
ATOM     12  H   UNL     1      33.591 -16.422 -23.009  0.00  0.00    +0.155 HD
ENDROOT
BRANCH   3  13
ATOM     13  N   UNL     1      32.512 -10.435 -22.730  0.00  0.00    -0.308 N 
ATOM     14  C   UNL     1      31.669  -9.957 -21.618  0.00  0.00    +0.108 C 
ATOM     15  C   UNL     1      32.760  -9.368 -23.710  0.00  0.00    +0.073 C 
ATOM     16  C   UNL     1      31.423  -8.471 -21.936  0.00  0.00    +0.024 C 
ATOM     17  C   UNL     1      31.613  -8.386 -23.441  0.00  0.00    +0.022 C 
ATOM     18  C   UNL     1      34.128  -8.727 -23.481  0.00  0.00    +0.021 C 
BRANCH  14  19
ATOM     19  C   UNL     1      32.362 -10.096 -20.265  0.00  0.00    +0.224 C 
BRANCH  19  23
ATOM     20  F   UNL     1      30.186 -10.493 -19.432  0.00  0.00    -0.167 F 
ATOM     21  F   UNL     1      31.601 -12.147 -19.373  0.00  0.00    -0.167 F 
ATOM     22  F   UNL     1      31.822 -10.475 -17.987  0.00  0.00    -0.167 F 
ATOM     23  C   UNL     1      31.488 -10.806 -19.252  0.00  0.00    +0.423 C 
ENDBRANCH  19  23
BRANCH  19  24
ATOM     24  O   UNL     1      32.670  -8.801 -19.759  0.00  0.00    -0.376 OA
ATOM     25  H   UNL     1      32.935  -8.222 -20.491  0.00  0.00    +0.211 HD
ENDBRANCH  19  24
ENDBRANCH  14  19
ENDBRANCH   3  13
BRANCH   9  29
ATOM     26  F   UNL     1      34.051 -11.889 -26.772  0.00  0.00    -0.166 F 
ATOM     27  F   UNL     1      34.226 -13.564 -28.157  0.00  0.00    -0.166 F 
ATOM     28  F   UNL     1      32.257 -12.859 -27.542  0.00  0.00    -0.166 F 
ATOM     29  C   UNL     1      33.518 -13.076 -27.120  0.00  0.00    +0.419 C 
ENDBRANCH   9  29
TORSDOF 5
ENDMDL
MODEL 6
REMARK VINA RESULT:      -8.9     12.315     15.462
REMARK  Name = 16750192
REMARK  5 active torsions:
REMARK  status: ('A' for Active; 'I' for Inactive)
REMARK    1  A    between atoms: C_3  and  N_13
REMARK    2  A    between atoms: C_9  and  C_29
REMARK    3  A    between atoms: C_14  and  C_19
REMARK    4  A    between atoms: C_19  and  C_23
REMARK    5  A    between atoms: C_19  and  O_24
REMARK                            x       y       z     vdW  Elec       q    Type
REMARK                         _______ _______ _______ _____ _____    ______ ____
ROOT
ATOM      1  O   UNL     1      29.131 -22.358 -16.878  0.00  0.00    -0.270 OA
ATOM      2  N   UNL     1      30.691 -23.285 -15.465  0.00  0.00    -0.280 N 
ATOM      3  C   UNL     1      34.638 -24.389 -14.623  0.00  0.00    +0.048 C 
ATOM      4  C   UNL     1      34.335 -23.779 -15.843  0.00  0.00    +0.016 C 
ATOM      5  C   UNL     1      33.632 -24.630 -13.690  0.00  0.00    +0.016 C 
ATOM      6  C   UNL     1      33.020 -23.400 -16.149  0.00  0.00    +0.019 C 
ATOM      7  C   UNL     1      32.020 -23.649 -15.197  0.00  0.00    +0.051 C 
ATOM      8  C   UNL     1      32.320 -24.260 -13.975  0.00  0.00    +0.016 C 
ATOM      9  C   UNL     1      32.642 -22.751 -17.423  0.00  0.00    +0.077 C 
ATOM     10  C   UNL     1      31.358 -22.419 -17.638  0.00  0.00    +0.062 C 
ATOM     11  C   UNL     1      30.292 -22.680 -16.637  0.00  0.00    +0.250 C 
ATOM     12  H   UNL     1      30.008 -23.472 -14.781  0.00  0.00    +0.155 HD
ENDROOT
BRANCH   3  13
ATOM     13  N   UNL     1      35.944 -24.756 -14.340  0.00  0.00    -0.308 N 
ATOM     14  C   UNL     1      36.676 -24.360 -13.121  0.00  0.00    +0.108 C 
ATOM     15  C   UNL     1      36.856 -25.295 -15.359  0.00  0.00    +0.073 C 
ATOM     16  C   UNL     1      38.141 -24.728 -13.417  0.00  0.00    +0.024 C 
ATOM     17  C   UNL     1      38.215 -24.724 -14.934  0.00  0.00    +0.022 C 
ATOM     18  C   UNL     1      36.847 -26.822 -15.344  0.00  0.00    +0.021 C 
BRANCH  14  19
ATOM     19  C   UNL     1      36.186 -25.109 -11.885  0.00  0.00    +0.224 C 
BRANCH  19  23
ATOM     20  F   UNL     1      36.892 -23.476 -10.329  0.00  0.00    -0.167 F 
ATOM     21  F   UNL     1      34.897 -23.261 -11.175  0.00  0.00    -0.167 F 
ATOM     22  F   UNL     1      35.294 -24.826  -9.706  0.00  0.00    -0.167 F 
ATOM     23  C   UNL     1      35.812 -24.164 -10.762  0.00  0.00    +0.423 C 
ENDBRANCH  19  23
BRANCH  19  24
ATOM     24  O   UNL     1      37.219 -25.972 -11.417  0.00  0.00    -0.376 OA
ATOM     25  H   UNL     1      36.954 -26.364 -10.571  0.00  0.00    +0.211 HD
ENDBRANCH  19  24
ENDBRANCH  14  19
ENDBRANCH   3  13
BRANCH   9  29
ATOM     26  F   UNL     1      33.889 -23.550 -19.244  0.00  0.00    -0.166 F 
ATOM     27  F   UNL     1      33.325 -21.443 -19.249  0.00  0.00    -0.166 F 
ATOM     28  F   UNL     1      34.868 -22.156 -17.883  0.00  0.00    -0.166 F 
ATOM     29  C   UNL     1      33.692 -22.472 -18.460  0.00  0.00    +0.419 C 
ENDBRANCH   9  29
TORSDOF 5
ENDMDL
MODEL 7
REMARK VINA RESULT:      -8.8     10.559     13.773
REMARK  Name = 16750192
REMARK  5 active torsions:
REMARK  status: ('A' for Active; 'I' for Inactive)
REMARK    1  A    between atoms: C_3  and  N_13
REMARK    2  A    between atoms: C_9  and  C_29
REMARK    3  A    between atoms: C_14  and  C_19
REMARK    4  A    between atoms: C_19  and  C_23
REMARK    5  A    between atoms: C_19  and  O_24
REMARK                            x       y       z     vdW  Elec       q    Type
REMARK                         _______ _______ _______ _____ _____    ______ ____
ROOT
ATOM      1  O   UNL     1      36.794 -19.511 -20.752  0.00  0.00    -0.270 OA
ATOM      2  N   UNL     1      37.208 -20.468 -18.702  0.00  0.00    -0.280 N 
ATOM      3  C   UNL     1      36.090 -23.030 -15.589  0.00  0.00    +0.048 C 
ATOM      4  C   UNL     1      35.259 -22.893 -16.704  0.00  0.00    +0.016 C 
ATOM      5  C   UNL     1      37.285 -22.318 -15.511  0.00  0.00    +0.016 C 
ATOM      6  C   UNL     1      35.612 -22.041 -17.761  0.00  0.00    +0.019 C 
ATOM      7  C   UNL     1      36.819 -21.332 -17.666  0.00  0.00    +0.051 C 
ATOM      8  C   UNL     1      37.652 -21.467 -16.550  0.00  0.00    +0.016 C 
ATOM      9  C   UNL     1      34.773 -21.857 -18.965  0.00  0.00    +0.077 C 
ATOM     10  C   UNL     1      35.184 -21.021 -19.933  0.00  0.00    +0.062 C 
ATOM     11  C   UNL     1      36.460 -20.265 -19.841  0.00  0.00    +0.250 C 
ATOM     12  H   UNL     1      38.059 -19.981 -18.611  0.00  0.00    +0.155 HD
ENDROOT
BRANCH   3  13
ATOM     13  N   UNL     1      35.723 -23.878 -14.555  0.00  0.00    -0.308 N 
ATOM     14  C   UNL     1      34.478 -23.749 -13.774  0.00  0.00    +0.108 C 
ATOM     15  C   UNL     1      36.673 -24.790 -13.901  0.00  0.00    +0.073 C 
ATOM     16  C   UNL     1      34.680 -24.692 -12.574  0.00  0.00    +0.024 C 
ATOM     17  C   UNL     1      36.190 -24.795 -12.445  0.00  0.00    +0.022 C 
ATOM     18  C   UNL     1      36.611 -26.181 -14.529  0.00  0.00    +0.021 C 
BRANCH  14  19
ATOM     19  C   UNL     1      33.249 -24.173 -14.573  0.00  0.00    +0.224 C 
BRANCH  19  23
ATOM     20  F   UNL     1      32.098 -22.169 -15.066  0.00  0.00    -0.167 F 
ATOM     21  F   UNL     1      30.900 -23.920 -14.573  0.00  0.00    -0.167 F 
ATOM     22  F   UNL     1      32.017 -22.889 -13.006  0.00  0.00    -0.167 F 
ATOM     23  C   UNL     1      32.058 -23.280 -14.297  0.00  0.00    +0.423 C 
ENDBRANCH  19  23
BRANCH  19  24
ATOM     24  O   UNL     1      32.896 -25.509 -14.221  0.00  0.00    -0.376 OA
ATOM     25  H   UNL     1      32.192 -25.492 -13.554  0.00  0.00    +0.211 HD
ENDBRANCH  19  24
ENDBRANCH  14  19
ENDBRANCH   3  13
BRANCH   9  29
ATOM     26  F   UNL     1      33.700 -23.919 -19.284  0.00  0.00    -0.166 F 
ATOM     27  F   UNL     1      32.731 -22.465 -17.980  0.00  0.00    -0.166 F 
ATOM     28  F   UNL     1      32.758 -22.148 -20.137  0.00  0.00    -0.166 F 
ATOM     29  C   UNL     1      33.477 -22.604 -19.093  0.00  0.00    +0.419 C 
ENDBRANCH   9  29
TORSDOF 5
ENDMDL
MODEL 8
REMARK VINA RESULT:      -8.8     12.316     15.514
REMARK  Name = 16750192
REMARK  5 active torsions:
REMARK  status: ('A' for Active; 'I' for Inactive)
REMARK    1  A    between atoms: C_3  and  N_13
REMARK    2  A    between atoms: C_9  and  C_29
REMARK    3  A    between atoms: C_14  and  C_19
REMARK    4  A    between atoms: C_19  and  C_23
REMARK    5  A    between atoms: C_19  and  O_24
REMARK                            x       y       z     vdW  Elec       q    Type
REMARK                         _______ _______ _______ _____ _____    ______ ____
ROOT
ATOM      1  O   UNL     1      32.924 -21.595 -19.798  0.00  0.00    -0.270 OA
ATOM      2  N   UNL     1      34.723 -22.044 -18.438  0.00  0.00    -0.280 N 
ATOM      3  C   UNL     1      36.306 -23.584 -14.884  0.00  0.00    +0.048 C 
ATOM      4  C   UNL     1      34.927 -23.636 -15.107  0.00  0.00    +0.016 C 
ATOM      5  C   UNL     1      37.151 -23.021 -15.837  0.00  0.00    +0.016 C 
ATOM      6  C   UNL     1      34.372 -23.127 -16.291  0.00  0.00    +0.019 C 
ATOM      7  C   UNL     1      35.239 -22.565 -17.240  0.00  0.00    +0.051 C 
ATOM      8  C   UNL     1      36.619 -22.511 -17.018  0.00  0.00    +0.016 C 
ATOM      9  C   UNL     1      32.923 -23.156 -16.581  0.00  0.00    +0.077 C 
ATOM     10  C   UNL     1      32.473 -22.647 -17.740  0.00  0.00    +0.062 C 
ATOM     11  C   UNL     1      33.382 -22.048 -18.751  0.00  0.00    +0.250 C 
ATOM     12  H   UNL     1      35.353 -21.654 -19.087  0.00  0.00    +0.155 HD
ENDROOT
BRANCH   3  13
ATOM     13  N   UNL     1      36.833 -24.093 -13.708  0.00  0.00    -0.308 N 
ATOM     14  C   UNL     1      37.776 -25.226 -13.639  0.00  0.00    +0.108 C 
ATOM     15  C   UNL     1      36.267 -23.789 -12.385  0.00  0.00    +0.073 C 
ATOM     16  C   UNL     1      37.810 -25.607 -12.148  0.00  0.00    +0.024 C 
ATOM     17  C   UNL     1      36.482 -25.098 -11.615  0.00  0.00    +0.022 C 
ATOM     18  C   UNL     1      37.000 -22.617 -11.736  0.00  0.00    +0.021 C 
BRANCH  14  19
ATOM     19  C   UNL     1      39.176 -24.842 -14.114  0.00  0.00    +0.224 C 
BRANCH  19  23
ATOM     20  F   UNL     1      39.088 -27.070 -14.897  0.00  0.00    -0.167 F 
ATOM     21  F   UNL     1      40.473 -25.710 -15.886  0.00  0.00    -0.167 F 
ATOM     22  F   UNL     1      40.912 -26.439 -13.876  0.00  0.00    -0.167 F 
ATOM     23  C   UNL     1      39.922 -26.025 -14.694  0.00  0.00    +0.423 C 
ENDBRANCH  19  23
BRANCH  19  24
ATOM     24  O   UNL     1      39.925 -24.338 -13.011  0.00  0.00    -0.376 OA
ATOM     25  H   UNL     1      40.812 -24.730 -13.018  0.00  0.00    +0.211 HD
ENDBRANCH  19  24
ENDBRANCH  14  19
ENDBRANCH   3  13
BRANCH   9  29
ATOM     26  F   UNL     1      31.643 -22.851 -14.638  0.00  0.00    -0.166 F 
ATOM     27  F   UNL     1      30.837 -24.159 -16.185  0.00  0.00    -0.166 F 
ATOM     28  F   UNL     1      32.523 -24.818 -14.969  0.00  0.00    -0.166 F 
ATOM     29  C   UNL     1      31.973 -23.753 -15.583  0.00  0.00    +0.419 C 
ENDBRANCH   9  29
TORSDOF 5
ENDMDL
MODEL 9
REMARK VINA RESULT:      -8.6     11.463     13.987
REMARK  Name = 16750192
REMARK  5 active torsions:
REMARK  status: ('A' for Active; 'I' for Inactive)
REMARK    1  A    between atoms: C_3  and  N_13
REMARK    2  A    between atoms: C_9  and  C_29
REMARK    3  A    between atoms: C_14  and  C_19
REMARK    4  A    between atoms: C_19  and  C_23
REMARK    5  A    between atoms: C_19  and  O_24
REMARK                            x       y       z     vdW  Elec       q    Type
REMARK                         _______ _______ _______ _____ _____    ______ ____
ROOT
ATOM      1  O   UNL     1      37.050 -20.744 -20.639  0.00  0.00    -0.270 OA
ATOM      2  N   UNL     1      35.084 -21.461 -19.685  0.00  0.00    -0.280 N 
ATOM      3  C   UNL     1      33.002 -23.163 -16.480  0.00  0.00    +0.048 C 
ATOM      4  C   UNL     1      34.385 -22.986 -16.390  0.00  0.00    +0.016 C 
ATOM      5  C   UNL     1      32.317 -22.777 -17.630  0.00  0.00    +0.016 C 
ATOM      6  C   UNL     1      35.106 -22.417 -17.450  0.00  0.00    +0.019 C 
ATOM      7  C   UNL     1      34.400 -22.033 -18.601  0.00  0.00    +0.051 C 
ATOM      8  C   UNL     1      33.015 -22.210 -18.693  0.00  0.00    +0.016 C 
ATOM      9  C   UNL     1      36.569 -22.205 -17.411  0.00  0.00    +0.077 C 
ATOM     10  C   UNL     1      37.183 -21.654 -18.471  0.00  0.00    +0.062 C 
ATOM     11  C   UNL     1      36.445 -21.245 -19.694  0.00  0.00    +0.250 C 
ATOM     12  H   UNL     1      34.566 -21.201 -20.481  0.00  0.00    +0.155 HD
ENDROOT
BRANCH   3  13
ATOM     13  N   UNL     1      32.308 -23.726 -15.420  0.00  0.00    -0.308 N 
ATOM     14  C   UNL     1      32.940 -24.463 -14.309  0.00  0.00    +0.108 C 
ATOM     15  C   UNL     1      30.855 -23.945 -15.448  0.00  0.00    +0.073 C 
ATOM     16  C   UNL     1      31.765 -25.148 -13.587  0.00  0.00    +0.024 C 
ATOM     17  C   UNL     1      30.692 -25.248 -14.657  0.00  0.00    +0.022 C 
ATOM     18  C   UNL     1      30.117 -22.780 -14.789  0.00  0.00    +0.021 C 
BRANCH  14  19
ATOM     19  C   UNL     1      33.679 -23.537 -13.347  0.00  0.00    +0.224 C 
BRANCH  19  23
ATOM     20  F   UNL     1      35.451 -25.067 -13.670  0.00  0.00    -0.167 F 
ATOM     21  F   UNL     1      35.883 -23.252 -12.546  0.00  0.00    -0.167 F 
ATOM     22  F   UNL     1      34.686 -24.836 -11.638  0.00  0.00    -0.167 F 
ATOM     23  C   UNL     1      34.932 -24.180 -12.792  0.00  0.00    +0.423 C 
ENDBRANCH  19  23
BRANCH  19  24
ATOM     24  O   UNL     1      32.823 -23.212 -12.256  0.00  0.00    -0.376 OA
ATOM     25  H   UNL     1      32.848 -22.255 -12.099  0.00  0.00    +0.211 HD
ENDBRANCH  19  24
ENDBRANCH  14  19
ENDBRANCH   3  13
BRANCH   9  29
ATOM     26  F   UNL     1      36.974 -23.827 -15.765  0.00  0.00    -0.166 F 
ATOM     27  F   UNL     1      38.669 -22.645 -16.460  0.00  0.00    -0.166 F 
ATOM     28  F   UNL     1      37.154 -21.733 -15.185  0.00  0.00    -0.166 F 
ATOM     29  C   UNL     1      37.349 -22.606 -16.193  0.00  0.00    +0.419 C 
ENDBRANCH   9  29
TORSDOF 5
ENDMDL
