MODEL 1
REMARK VINA RESULT:      -7.2      0.000      0.000
REMARK  Name = 446920
REMARK  10 active torsions:
REMARK  status: ('A' for Active; 'I' for Inactive)
REMARK    1  A    between atoms: P_1  and  O_3
REMARK    2  A    between atoms: P_1  and  C_5
REMARK    3  A    between atoms: P_1  and  C_12
REMARK    4  A    between atoms: C_5  and  C_6
REMARK    5  A    between atoms: C_6  and  C_9
REMARK    6  A    between atoms: C_9  and  O_10
REMARK    7  A    between atoms: C_12  and  N_13
REMARK    8  A    between atoms: C_12  and  C_17
REMARK    9  A    between atoms: C_17  and  C_19
REMARK   10  A    between atoms: C_19  and  O_20
REMARK                            x       y       z     vdW  Elec       q    Type
REMARK                         _______ _______ _______ _____ _____    ______ ____
ROOT
ATOM      1  P   UNL     1      36.521 -25.298 -14.533  0.00  0.00    +0.201 P 
ATOM      2  O   UNL     1      35.519 -25.453 -15.642  0.00  0.00    -0.292 OA
ENDROOT
BRANCH   1   3
ATOM      3  O   UNL     1      36.556 -26.581 -13.546  0.00  0.00    -0.344 OA
ATOM      4  H   UNL     1      36.406 -27.389 -14.061  0.00  0.00    +0.218 HD
ENDBRANCH   1   3
BRANCH   1   5
ATOM      5  C   UNL     1      36.130 -23.966 -13.417  0.00  0.00    +0.096 C 
BRANCH   5   6
ATOM      6  C   UNL     1      36.831 -24.045 -12.063  0.00  0.00    +0.108 C 
ATOM      7  C   UNL     1      37.545 -22.740 -11.721  0.00  0.00    +0.012 C 
BRANCH   6   9
ATOM      8  O   UNL     1      35.995 -24.211  -9.780  0.00  0.00    -0.250 OA
ATOM      9  C   UNL     1      35.838 -24.419 -10.975  0.00  0.00    +0.314 C 
BRANCH   9  10
ATOM     10  O   UNL     1      34.733 -25.029 -11.478  0.00  0.00    -0.480 OA
ATOM     11  H   UNL     1      34.444 -25.844 -11.118  0.00  0.00    +0.295 HD
ENDBRANCH   9  10
ENDBRANCH   6   9
ENDBRANCH   5   6
ENDBRANCH   1   5
BRANCH   1  12
ATOM     12  C   UNL     1      38.211 -25.149 -15.097  0.00  0.00    +0.026 C 
BRANCH  12  13
ATOM     13  N   UNL     1      38.223 -23.765 -15.563  0.00  0.00    +0.388 N 
ATOM     14  H   UNL     1      37.521 -23.228 -15.051  0.00  0.00    -0.088 HD
ATOM     15  H   UNL     1      38.010 -23.739 -16.560  0.00  0.00    -0.088 HD
ATOM     16  H   UNL     1      39.145 -23.359 -15.401  0.00  0.00    -0.088 HD
ENDBRANCH  12  13
BRANCH  12  17
ATOM     17  C   UNL     1      39.324 -25.379 -14.080  0.00  0.00    +0.097 C 
BRANCH  17  19
ATOM     18  O   UNL     1      41.335 -26.750 -14.037  0.00  0.00    -0.250 OA
ATOM     19  C   UNL     1      40.514 -26.101 -14.671  0.00  0.00    +0.312 C 
BRANCH  19  20
ATOM     20  O   UNL     1      40.551 -25.988 -16.025  0.00  0.00    -0.480 OA
ATOM     21  H   UNL     1      40.776 -25.169 -16.420  0.00  0.00    +0.295 HD
ENDBRANCH  19  20
ENDBRANCH  17  19
ENDBRANCH  12  17
ENDBRANCH   1  12
TORSDOF 10
ENDMDL
MODEL 2
REMARK VINA RESULT:      -6.9      1.899      3.402
REMARK  Name = 446920
REMARK  10 active torsions:
REMARK  status: ('A' for Active; 'I' for Inactive)
REMARK    1  A    between atoms: P_1  and  O_3
REMARK    2  A    between atoms: P_1  and  C_5
REMARK    3  A    between atoms: P_1  and  C_12
REMARK    4  A    between atoms: C_5  and  C_6
REMARK    5  A    between atoms: C_6  and  C_9
REMARK    6  A    between atoms: C_9  and  O_10
REMARK    7  A    between atoms: C_12  and  N_13
REMARK    8  A    between atoms: C_12  and  C_17
REMARK    9  A    between atoms: C_17  and  C_19
REMARK   10  A    between atoms: C_19  and  O_20
REMARK                            x       y       z     vdW  Elec       q    Type
REMARK                         _______ _______ _______ _____ _____    ______ ____
ROOT
ATOM      1  P   UNL     1      37.489 -24.058 -12.085  0.00  0.00    +0.201 P 
ATOM      2  O   UNL     1      36.825 -24.585 -10.844  0.00  0.00    -0.292 OA
ENDROOT
BRANCH   1   3
ATOM      3  O   UNL     1      38.373 -22.733 -11.800  0.00  0.00    -0.344 OA
ATOM      4  H   UNL     1      37.944 -21.964 -12.207  0.00  0.00    +0.218 HD
ENDBRANCH   1   3
BRANCH   1   5
ATOM      5  C   UNL     1      36.330 -23.489 -13.312  0.00  0.00    +0.096 C 
BRANCH   5   6
ATOM      6  C   UNL     1      35.234 -24.493 -13.665  0.00  0.00    +0.108 C 
ATOM      7  C   UNL     1      33.843 -23.874 -13.548  0.00  0.00    +0.012 C 
BRANCH   6   9
ATOM      8  O   UNL     1      35.353 -24.416 -16.098  0.00  0.00    -0.250 OA
ATOM      9  C   UNL     1      35.461 -25.053 -15.059  0.00  0.00    +0.314 C 
BRANCH   9  10
ATOM     10  O   UNL     1      35.797 -26.369 -15.034  0.00  0.00    -0.480 OA
ATOM     11  H   UNL     1      36.064 -26.800 -15.822  0.00  0.00    +0.295 HD
ENDBRANCH   9  10
ENDBRANCH   6   9
ENDBRANCH   5   6
ENDBRANCH   1   5
BRANCH   1  12
ATOM     12  C   UNL     1      38.653 -25.197 -12.824  0.00  0.00    +0.026 C 
BRANCH  12  13
ATOM     13  N   UNL     1      37.910 -26.450 -12.726  0.00  0.00    +0.388 N 
ATOM     14  H   UNL     1      36.914 -26.265 -12.849  0.00  0.00    -0.088 HD
ATOM     15  H   UNL     1      38.068 -26.868 -11.810  0.00  0.00    -0.088 HD
ATOM     16  H   UNL     1      38.228 -27.091 -13.453  0.00  0.00    -0.088 HD
ENDBRANCH  12  13
BRANCH  12  17
ATOM     17  C   UNL     1      39.080 -24.941 -14.266  0.00  0.00    +0.097 C 
BRANCH  17  19
ATOM     18  O   UNL     1      40.939 -26.481 -13.950  0.00  0.00    -0.250 OA
ATOM     19  C   UNL     1      40.226 -25.828 -14.700  0.00  0.00    +0.312 C 
BRANCH  19  20
ATOM     20  O   UNL     1      40.354 -25.862 -16.053  0.00  0.00    -0.480 OA
ATOM     21  H   UNL     1      41.186 -25.697 -16.448  0.00  0.00    +0.295 HD
ENDBRANCH  19  20
ENDBRANCH  17  19
ENDBRANCH  12  17
ENDBRANCH   1  12
TORSDOF 10
ENDMDL
MODEL 3
REMARK VINA RESULT:      -6.7      2.246      2.948
REMARK  Name = 446920
REMARK  10 active torsions:
REMARK  status: ('A' for Active; 'I' for Inactive)
REMARK    1  A    between atoms: P_1  and  O_3
REMARK    2  A    between atoms: P_1  and  C_5
REMARK    3  A    between atoms: P_1  and  C_12
REMARK    4  A    between atoms: C_5  and  C_6
REMARK    5  A    between atoms: C_6  and  C_9
REMARK    6  A    between atoms: C_9  and  O_10
REMARK    7  A    between atoms: C_12  and  N_13
REMARK    8  A    between atoms: C_12  and  C_17
REMARK    9  A    between atoms: C_17  and  C_19
REMARK   10  A    between atoms: C_19  and  O_20
REMARK                            x       y       z     vdW  Elec       q    Type
REMARK                         _______ _______ _______ _____ _____    ______ ____
ROOT
ATOM      1  P   UNL     1      36.961 -24.908 -12.937  0.00  0.00    +0.201 P 
ATOM      2  O   UNL     1      36.256 -25.270 -11.661  0.00  0.00    -0.292 OA
ENDROOT
BRANCH   1   3
ATOM      3  O   UNL     1      37.477 -23.374 -12.945  0.00  0.00    -0.344 OA
ATOM      4  H   UNL     1      37.332 -22.979 -12.071  0.00  0.00    +0.218 HD
ENDBRANCH   1   3
BRANCH   1   5
ATOM      5  C   UNL     1      35.897 -24.963 -14.365  0.00  0.00    +0.096 C 
BRANCH   5   6
ATOM      6  C   UNL     1      34.916 -23.797 -14.471  0.00  0.00    +0.108 C 
ATOM      7  C   UNL     1      34.535 -23.513 -15.922  0.00  0.00    +0.012 C 
BRANCH   6   9
ATOM      8  O   UNL     1      32.713 -24.724 -13.995  0.00  0.00    -0.250 OA
ATOM      9  C   UNL     1      33.680 -24.069 -13.631  0.00  0.00    +0.314 C 
BRANCH   9  10
ATOM     10  O   UNL     1      33.757 -23.488 -12.405  0.00  0.00    -0.480 OA
ATOM     11  H   UNL     1      34.362 -22.790 -12.253  0.00  0.00    +0.295 HD
ENDBRANCH   9  10
ENDBRANCH   6   9
ENDBRANCH   5   6
ENDBRANCH   1   5
BRANCH   1  12
ATOM     12  C   UNL     1      38.445 -25.858 -13.241  0.00  0.00    +0.026 C 
BRANCH  12  13
ATOM     13  N   UNL     1      37.939 -26.866 -14.169  0.00  0.00    +0.388 N 
ATOM     14  H   UNL     1      38.405 -27.756 -13.990  0.00  0.00    -0.088 HD
ATOM     15  H   UNL     1      38.127 -26.571 -15.127  0.00  0.00    -0.088 HD
ATOM     16  H   UNL     1      36.934 -26.976 -14.037  0.00  0.00    -0.088 HD
ENDBRANCH  12  13
BRANCH  12  17
ATOM     17  C   UNL     1      39.643 -25.132 -13.844  0.00  0.00    +0.097 C 
BRANCH  17  19
ATOM     18  O   UNL     1      41.300 -26.886 -14.172  0.00  0.00    -0.250 OA
ATOM     19  C   UNL     1      40.539 -26.052 -14.644  0.00  0.00    +0.312 C 
BRANCH  19  20
ATOM     20  O   UNL     1      40.370 -25.881 -15.982  0.00  0.00    -0.480 OA
ATOM     21  H   UNL     1      40.842 -25.208 -16.431  0.00  0.00    +0.295 HD
ENDBRANCH  19  20
ENDBRANCH  17  19
ENDBRANCH  12  17
ENDBRANCH   1  12
TORSDOF 10
ENDMDL
MODEL 4
REMARK VINA RESULT:      -6.6      2.345      3.497
REMARK  Name = 446920
REMARK  10 active torsions:
REMARK  status: ('A' for Active; 'I' for Inactive)
REMARK    1  A    between atoms: P_1  and  O_3
REMARK    2  A    between atoms: P_1  and  C_5
REMARK    3  A    between atoms: P_1  and  C_12
REMARK    4  A    between atoms: C_5  and  C_6
REMARK    5  A    between atoms: C_6  and  C_9
REMARK    6  A    between atoms: C_9  and  O_10
REMARK    7  A    between atoms: C_12  and  N_13
REMARK    8  A    between atoms: C_12  and  C_17
REMARK    9  A    between atoms: C_17  and  C_19
REMARK   10  A    between atoms: C_19  and  O_20
REMARK                            x       y       z     vdW  Elec       q    Type
REMARK                         _______ _______ _______ _____ _____    ______ ____
ROOT
ATOM      1  P   UNL     1      37.191 -24.390 -13.626  0.00  0.00    +0.201 P 
ATOM      2  O   UNL     1      35.873 -24.864 -13.083  0.00  0.00    -0.292 OA
ENDROOT
BRANCH   1   3
ATOM      3  O   UNL     1      37.680 -23.006 -12.943  0.00  0.00    -0.344 OA
ATOM      4  H   UNL     1      38.174 -22.482 -13.593  0.00  0.00    +0.218 HD
ENDBRANCH   1   3
BRANCH   1   5
ATOM      5  C   UNL     1      37.123 -23.961 -15.354  0.00  0.00    +0.096 C 
BRANCH   5   6
ATOM      6  C   UNL     1      36.342 -22.685 -15.662  0.00  0.00    +0.108 C 
ATOM      7  C   UNL     1      36.930 -21.939 -16.857  0.00  0.00    +0.012 C 
BRANCH   6   9
ATOM      8  O   UNL     1      34.400 -23.393 -16.953  0.00  0.00    -0.250 OA
ATOM      9  C   UNL     1      34.876 -23.007 -15.894  0.00  0.00    +0.314 C 
BRANCH   9  10
ATOM     10  O   UNL     1      34.125 -22.810 -14.779  0.00  0.00    -0.480 OA
ATOM     11  H   UNL     1      34.405 -22.198 -14.127  0.00  0.00    +0.295 HD
ENDBRANCH   9  10
ENDBRANCH   6   9
ENDBRANCH   5   6
ENDBRANCH   1   5
BRANCH   1  12
ATOM     12  C   UNL     1      38.547 -25.516 -13.327  0.00  0.00    +0.026 C 
BRANCH  12  13
ATOM     13  N   UNL     1      38.118 -26.674 -14.106  0.00  0.00    +0.388 N 
ATOM     14  H   UNL     1      37.883 -26.377 -15.054  0.00  0.00    -0.088 HD
ATOM     15  H   UNL     1      37.297 -27.094 -13.669  0.00  0.00    -0.088 HD
ATOM     16  H   UNL     1      38.873 -27.359 -14.142  0.00  0.00    -0.088 HD
ENDBRANCH  12  13
BRANCH  12  17
ATOM     17  C   UNL     1      39.944 -25.076 -13.751  0.00  0.00    +0.097 C 
BRANCH  17  19
ATOM     18  O   UNL     1      41.324 -27.034 -14.185  0.00  0.00    -0.250 OA
ATOM     19  C   UNL     1      40.645 -26.108 -14.607  0.00  0.00    +0.312 C 
BRANCH  19  20
ATOM     20  O   UNL     1      40.396 -25.919 -15.930  0.00  0.00    -0.480 OA
ATOM     21  H   UNL     1      40.148 -25.072 -16.242  0.00  0.00    +0.295 HD
ENDBRANCH  19  20
ENDBRANCH  17  19
ENDBRANCH  12  17
ENDBRANCH   1  12
TORSDOF 10
ENDMDL
MODEL 5
REMARK VINA RESULT:      -6.6      2.012      2.485
REMARK  Name = 446920
REMARK  10 active torsions:
REMARK  status: ('A' for Active; 'I' for Inactive)
REMARK    1  A    between atoms: P_1  and  O_3
REMARK    2  A    between atoms: P_1  and  C_5
REMARK    3  A    between atoms: P_1  and  C_12
REMARK    4  A    between atoms: C_5  and  C_6
REMARK    5  A    between atoms: C_6  and  C_9
REMARK    6  A    between atoms: C_9  and  O_10
REMARK    7  A    between atoms: C_12  and  N_13
REMARK    8  A    between atoms: C_12  and  C_17
REMARK    9  A    between atoms: C_17  and  C_19
REMARK   10  A    between atoms: C_19  and  O_20
REMARK                            x       y       z     vdW  Elec       q    Type
REMARK                         _______ _______ _______ _____ _____    ______ ____
ROOT
ATOM      1  P   UNL     1      37.428 -24.264 -14.813  0.00  0.00    +0.201 P 
ATOM      2  O   UNL     1      38.251 -23.328 -15.652  0.00  0.00    -0.292 OA
ENDROOT
BRANCH   1   3
ATOM      3  O   UNL     1      36.619 -25.346 -15.705  0.00  0.00    -0.344 OA
ATOM      4  H   UNL     1      36.343 -24.935 -16.539  0.00  0.00    +0.218 HD
ENDBRANCH   1   3
BRANCH   1   5
ATOM      5  C   UNL     1      36.119 -23.443 -13.927  0.00  0.00    +0.096 C 
BRANCH   5   6
ATOM      6  C   UNL     1      35.167 -24.380 -13.187  0.00  0.00    +0.108 C 
ATOM      7  C   UNL     1      35.260 -24.198 -11.674  0.00  0.00    +0.012 C 
BRANCH   6   9
ATOM      8  O   UNL     1      33.397 -23.355 -14.513  0.00  0.00    -0.250 OA
ATOM      9  C   UNL     1      33.741 -24.172 -13.669  0.00  0.00    +0.314 C 
BRANCH   9  10
ATOM     10  O   UNL     1      32.864 -25.003 -13.048  0.00  0.00    -0.480 OA
ATOM     11  H   UNL     1      33.176 -25.760 -12.594  0.00  0.00    +0.295 HD
ENDBRANCH   9  10
ENDBRANCH   6   9
ENDBRANCH   5   6
ENDBRANCH   1   5
BRANCH   1  12
ATOM     12  C   UNL     1      38.390 -25.270 -13.691  0.00  0.00    +0.026 C 
BRANCH  12  13
ATOM     13  N   UNL     1      38.049 -26.609 -14.163  0.00  0.00    +0.388 N 
ATOM     14  H   UNL     1      37.682 -27.160 -13.386  0.00  0.00    -0.088 HD
ATOM     15  H   UNL     1      38.884 -27.062 -14.536  0.00  0.00    -0.088 HD
ATOM     16  H   UNL     1      37.342 -26.543 -14.895  0.00  0.00    -0.088 HD
ENDBRANCH  12  13
BRANCH  12  17
ATOM     17  C   UNL     1      39.903 -25.078 -13.683  0.00  0.00    +0.097 C 
BRANCH  17  19
ATOM     18  O   UNL     1      41.295 -27.008 -14.196  0.00  0.00    -0.250 OA
ATOM     19  C   UNL     1      40.621 -26.062 -14.580  0.00  0.00    +0.312 C 
BRANCH  19  20
ATOM     20  O   UNL     1      40.393 -25.804 -15.895  0.00  0.00    -0.480 OA
ATOM     21  H   UNL     1      39.573 -25.442 -16.165  0.00  0.00    +0.295 HD
ENDBRANCH  19  20
ENDBRANCH  17  19
ENDBRANCH  12  17
ENDBRANCH   1  12
TORSDOF 10
ENDMDL
MODEL 6
REMARK VINA RESULT:      -6.6      2.045      3.551
REMARK  Name = 446920
REMARK  10 active torsions:
REMARK  status: ('A' for Active; 'I' for Inactive)
REMARK    1  A    between atoms: P_1  and  O_3
REMARK    2  A    between atoms: P_1  and  C_5
REMARK    3  A    between atoms: P_1  and  C_12
REMARK    4  A    between atoms: C_5  and  C_6
REMARK    5  A    between atoms: C_6  and  C_9
REMARK    6  A    between atoms: C_9  and  O_10
REMARK    7  A    between atoms: C_12  and  N_13
REMARK    8  A    between atoms: C_12  and  C_17
REMARK    9  A    between atoms: C_17  and  C_19
REMARK   10  A    between atoms: C_19  and  O_20
REMARK                            x       y       z     vdW  Elec       q    Type
REMARK                         _______ _______ _______ _____ _____    ______ ____
ROOT
ATOM      1  P   UNL     1      36.384 -25.465 -14.755  0.00  0.00    +0.201 P 
ATOM      2  O   UNL     1      35.733 -26.480 -15.653  0.00  0.00    -0.292 OA
ENDROOT
BRANCH   1   3
ATOM      3  O   UNL     1      36.452 -25.955 -13.214  0.00  0.00    -0.344 OA
ATOM      4  H   UNL     1      35.552 -26.067 -12.871  0.00  0.00    +0.218 HD
ENDBRANCH   1   3
BRANCH   1   5
ATOM      5  C   UNL     1      35.465 -23.945 -14.634  0.00  0.00    +0.096 C 
BRANCH   5   6
ATOM      6  C   UNL     1      34.215 -23.886 -15.510  0.00  0.00    +0.108 C 
ATOM      7  C   UNL     1      33.033 -23.271 -14.765  0.00  0.00    +0.012 C 
BRANCH   6   9
ATOM      8  O   UNL     1      35.599 -22.690 -17.119  0.00  0.00    -0.250 OA
ATOM      9  C   UNL     1      34.503 -23.123 -16.791  0.00  0.00    +0.314 C 
BRANCH   9  10
ATOM     10  O   UNL     1      33.389 -22.958 -17.552  0.00  0.00    -0.480 OA
ATOM     11  H   UNL     1      33.469 -22.740 -18.459  0.00  0.00    +0.295 HD
ENDBRANCH   9  10
ENDBRANCH   6   9
ENDBRANCH   5   6
ENDBRANCH   1   5
BRANCH   1  12
ATOM     12  C   UNL     1      38.089 -25.120 -15.169  0.00  0.00    +0.026 C 
BRANCH  12  13
ATOM     13  N   UNL     1      38.012 -23.694 -15.476  0.00  0.00    +0.388 N 
ATOM     14  H   UNL     1      37.487 -23.561 -16.341  0.00  0.00    -0.088 HD
ATOM     15  H   UNL     1      38.954 -23.319 -15.589  0.00  0.00    -0.088 HD
ATOM     16  H   UNL     1      37.541 -23.207 -14.714  0.00  0.00    -0.088 HD
ENDBRANCH  12  13
BRANCH  12  17
ATOM     17  C   UNL     1      39.146 -25.379 -14.100  0.00  0.00    +0.097 C 
BRANCH  17  19
ATOM     18  O   UNL     1      41.254 -26.594 -14.007  0.00  0.00    -0.250 OA
ATOM     19  C   UNL     1      40.399 -26.015 -14.663  0.00  0.00    +0.312 C 
BRANCH  19  20
ATOM     20  O   UNL     1      40.452 -25.912 -16.017  0.00  0.00    -0.480 OA
ATOM     21  H   UNL     1      41.104 -25.374 -16.420  0.00  0.00    +0.295 HD
ENDBRANCH  19  20
ENDBRANCH  17  19
ENDBRANCH  12  17
ENDBRANCH   1  12
TORSDOF 10
ENDMDL
MODEL 7
REMARK VINA RESULT:      -6.5      2.800      5.232
REMARK  Name = 446920
REMARK  10 active torsions:
REMARK  status: ('A' for Active; 'I' for Inactive)
REMARK    1  A    between atoms: P_1  and  O_3
REMARK    2  A    between atoms: P_1  and  C_5
REMARK    3  A    between atoms: P_1  and  C_12
REMARK    4  A    between atoms: C_5  and  C_6
REMARK    5  A    between atoms: C_6  and  C_9
REMARK    6  A    between atoms: C_9  and  O_10
REMARK    7  A    between atoms: C_12  and  N_13
REMARK    8  A    between atoms: C_12  and  C_17
REMARK    9  A    between atoms: C_17  and  C_19
REMARK   10  A    between atoms: C_19  and  O_20
REMARK                            x       y       z     vdW  Elec       q    Type
REMARK                         _______ _______ _______ _____ _____    ______ ____
ROOT
ATOM      1  P   UNL     1      37.696 -24.641 -14.345  0.00  0.00    +0.201 P 
ATOM      2  O   UNL     1      39.166 -24.666 -14.037  0.00  0.00    -0.292 OA
ENDROOT
BRANCH   1   3
ATOM      3  O   UNL     1      37.305 -25.612 -15.579  0.00  0.00    -0.344 OA
ATOM      4  H   UNL     1      37.445 -25.143 -16.417  0.00  0.00    +0.218 HD
ENDBRANCH   1   3
BRANCH   1   5
ATOM      5  C   UNL     1      37.126 -23.052 -14.912  0.00  0.00    +0.096 C 
BRANCH   5   6
ATOM      6  C   UNL     1      36.172 -23.106 -16.103  0.00  0.00    +0.108 C 
ATOM      7  C   UNL     1      34.717 -22.948 -15.667  0.00  0.00    +0.012 C 
BRANCH   6   9
ATOM      8  O   UNL     1      36.187 -22.050 -18.299  0.00  0.00    -0.250 OA
ATOM      9  C   UNL     1      36.546 -22.051 -17.129  0.00  0.00    +0.314 C 
BRANCH   9  10
ATOM     10  O   UNL     1      37.348 -21.088 -16.604  0.00  0.00    -0.480 OA
ATOM     11  H   UNL     1      37.864 -21.270 -15.844  0.00  0.00    +0.295 HD
ENDBRANCH   9  10
ENDBRANCH   6   9
ENDBRANCH   5   6
ENDBRANCH   1   5
BRANCH   1  12
ATOM     12  C   UNL     1      36.664 -25.219 -13.004  0.00  0.00    +0.026 C 
BRANCH  12  13
ATOM     13  N   UNL     1      37.670 -25.778 -12.105  0.00  0.00    +0.388 N 
ATOM     14  H   UNL     1      37.461 -25.499 -11.146  0.00  0.00    -0.088 HD
ATOM     15  H   UNL     1      38.592 -25.430 -12.368  0.00  0.00    -0.088 HD
ATOM     16  H   UNL     1      37.659 -26.796 -12.172  0.00  0.00    -0.088 HD
ENDBRANCH  12  13
BRANCH  12  17
ATOM     17  C   UNL     1      35.807 -24.192 -12.272  0.00  0.00    +0.097 C 
BRANCH  17  19
ATOM     18  O   UNL     1      36.135 -24.222  -9.860  0.00  0.00    -0.250 OA
ATOM     19  C   UNL     1      36.415 -23.757 -10.957  0.00  0.00    +0.312 C 
BRANCH  19  20
ATOM     20  O   UNL     1      37.365 -22.802 -11.132  0.00  0.00    -0.480 OA
ATOM     21  H   UNL     1      37.284 -21.976 -10.698  0.00  0.00    +0.295 HD
ENDBRANCH  19  20
ENDBRANCH  17  19
ENDBRANCH  12  17
ENDBRANCH   1  12
TORSDOF 10
ENDMDL
MODEL 8
REMARK VINA RESULT:      -6.5      9.919     11.790
REMARK  Name = 446920
REMARK  10 active torsions:
REMARK  status: ('A' for Active; 'I' for Inactive)
REMARK    1  A    between atoms: P_1  and  O_3
REMARK    2  A    between atoms: P_1  and  C_5
REMARK    3  A    between atoms: P_1  and  C_12
REMARK    4  A    between atoms: C_5  and  C_6
REMARK    5  A    between atoms: C_6  and  C_9
REMARK    6  A    between atoms: C_9  and  O_10
REMARK    7  A    between atoms: C_12  and  N_13
REMARK    8  A    between atoms: C_12  and  C_17
REMARK    9  A    between atoms: C_17  and  C_19
REMARK   10  A    between atoms: C_19  and  O_20
REMARK                            x       y       z     vdW  Elec       q    Type
REMARK                         _______ _______ _______ _____ _____    ______ ____
ROOT
ATOM      1  P   UNL     1      35.518 -18.423 -21.485  0.00  0.00    +0.201 P 
ATOM      2  O   UNL     1      35.448 -17.329 -20.458  0.00  0.00    -0.292 OA
ENDROOT
BRANCH   1   3
ATOM      3  O   UNL     1      36.926 -18.434 -22.284  0.00  0.00    -0.344 OA
ATOM      4  H   UNL     1      36.920 -17.736 -22.958  0.00  0.00    +0.218 HD
ENDBRANCH   1   3
BRANCH   1   5
ATOM      5  C   UNL     1      34.333 -18.226 -22.800  0.00  0.00    +0.096 C 
BRANCH   5   6
ATOM      6  C   UNL     1      34.935 -18.216 -24.203  0.00  0.00    +0.108 C 
ATOM      7  C   UNL     1      34.175 -19.142 -25.150  0.00  0.00    +0.012 C 
BRANCH   6   9
ATOM      8  O   UNL     1      34.523 -16.451 -25.831  0.00  0.00    -0.250 OA
ATOM      9  C   UNL     1      34.976 -16.799 -24.750  0.00  0.00    +0.314 C 
BRANCH   9  10
ATOM     10  O   UNL     1      35.590 -15.938 -23.897  0.00  0.00    -0.480 OA
ATOM     11  H   UNL     1      36.497 -15.734 -24.009  0.00  0.00    +0.295 HD
ENDBRANCH   9  10
ENDBRANCH   6   9
ENDBRANCH   5   6
ENDBRANCH   1   5
BRANCH   1  12
ATOM     12  C   UNL     1      35.405 -20.070 -20.799  0.00  0.00    +0.026 C 
BRANCH  12  13
ATOM     13  N   UNL     1      36.479 -20.030 -19.811  0.00  0.00    +0.388 N 
ATOM     14  H   UNL     1      37.303 -19.590 -20.223  0.00  0.00    -0.088 HD
ATOM     15  H   UNL     1      36.710 -20.980 -19.520  0.00  0.00    -0.088 HD
ATOM     16  H   UNL     1      36.176 -19.490 -19.000  0.00  0.00    -0.088 HD
ENDBRANCH  12  13
BRANCH  12  17
ATOM     17  C   UNL     1      34.090 -20.478 -20.141  0.00  0.00    +0.097 C 
BRANCH  17  19
ATOM     18  O   UNL     1      35.179 -22.501 -19.336  0.00  0.00    -0.250 OA
ATOM     19  C   UNL     1      34.157 -21.850 -19.508  0.00  0.00    +0.312 C 
BRANCH  19  20
ATOM     20  O   UNL     1      32.934 -22.276 -19.096  0.00  0.00    -0.480 OA
ATOM     21  H   UNL     1      32.807 -23.171 -18.855  0.00  0.00    +0.295 HD
ENDBRANCH  19  20
ENDBRANCH  17  19
ENDBRANCH  12  17
ENDBRANCH   1  12
TORSDOF 10
ENDMDL
MODEL 9
REMARK VINA RESULT:      -6.5      5.896      8.382
REMARK  Name = 446920
REMARK  10 active torsions:
REMARK  status: ('A' for Active; 'I' for Inactive)
REMARK    1  A    between atoms: P_1  and  O_3
REMARK    2  A    between atoms: P_1  and  C_5
REMARK    3  A    between atoms: P_1  and  C_12
REMARK    4  A    between atoms: C_5  and  C_6
REMARK    5  A    between atoms: C_6  and  C_9
REMARK    6  A    between atoms: C_9  and  O_10
REMARK    7  A    between atoms: C_12  and  N_13
REMARK    8  A    between atoms: C_12  and  C_17
REMARK    9  A    between atoms: C_17  and  C_19
REMARK   10  A    between atoms: C_19  and  O_20
REMARK                            x       y       z     vdW  Elec       q    Type
REMARK                         _______ _______ _______ _____ _____    ______ ____
ROOT
ATOM      1  P   UNL     1      31.347 -24.196 -14.104  0.00  0.00    +0.201 P 
ATOM      2  O   UNL     1      30.768 -23.713 -12.804  0.00  0.00    -0.292 OA
ENDROOT
BRANCH   1   3
ATOM      3  O   UNL     1      32.166 -25.582 -13.941  0.00  0.00    -0.344 OA
ATOM      4  H   UNL     1      33.001 -25.412 -13.478  0.00  0.00    +0.218 HD
ENDBRANCH   1   3
BRANCH   1   5
ATOM      5  C   UNL     1      32.582 -23.098 -14.770  0.00  0.00    +0.096 C 
BRANCH   5   6
ATOM      6  C   UNL     1      33.475 -23.721 -15.841  0.00  0.00    +0.108 C 
ATOM      7  C   UNL     1      33.166 -23.163 -17.228  0.00  0.00    +0.012 C 
BRANCH   6   9
ATOM      8  O   UNL     1      35.860 -24.216 -15.894  0.00  0.00    -0.250 OA
ATOM      9  C   UNL     1      34.939 -23.519 -15.491  0.00  0.00    +0.314 C 
BRANCH   9  10
ATOM     10  O   UNL     1      35.125 -22.462 -14.657  0.00  0.00    -0.480 OA
ATOM     11  H   UNL     1      34.851 -21.606 -14.918  0.00  0.00    +0.295 HD
ENDBRANCH   9  10
ENDBRANCH   6   9
ENDBRANCH   5   6
ENDBRANCH   1   5
BRANCH   1  12
ATOM     12  C   UNL     1      30.121 -24.568 -15.351  0.00  0.00    +0.026 C 
BRANCH  12  13
ATOM     13  N   UNL     1      29.068 -25.161 -14.531  0.00  0.00    +0.388 N 
ATOM     14  H   UNL     1      29.081 -26.176 -14.644  0.00  0.00    -0.088 HD
ATOM     15  H   UNL     1      28.162 -24.798 -14.826  0.00  0.00    -0.088 HD
ATOM     16  H   UNL     1      29.227 -24.927 -13.551  0.00  0.00    -0.088 HD
ENDBRANCH  12  13
BRANCH  12  17
ATOM     17  C   UNL     1      29.567 -23.408 -16.172  0.00  0.00    +0.097 C 
BRANCH  17  19
ATOM     18  O   UNL     1      27.209 -22.895 -15.850  0.00  0.00    -0.250 OA
ATOM     19  C   UNL     1      28.081 -23.532 -16.426  0.00  0.00    +0.312 C 
BRANCH  19  20
ATOM     20  O   UNL     1      27.811 -24.417 -17.422  0.00  0.00    -0.480 OA
ATOM     21  H   UNL     1      28.207 -25.265 -17.413  0.00  0.00    +0.295 HD
ENDBRANCH  19  20
ENDBRANCH  17  19
ENDBRANCH  12  17
ENDBRANCH   1  12
TORSDOF 10
ENDMDL
