MODEL 1
REMARK VINA RESULT:      -3.0      0.000      0.000
REMARK  Name = 9909368
REMARK  3 active torsions:
REMARK  status: ('A' for Active; 'I' for Inactive)
REMARK    1  A    between atoms: C_12  and  C_24
REMARK    2  A    between atoms: C_13  and  O_28
REMARK    3  A    between atoms: C_18  and  O_30
REMARK                            x       y       z     vdW  Elec       q    Type
REMARK                         _______ _______ _______ _____ _____    ______ ____
ROOT
ATOM      1  O   UNL     1      31.184 -22.285 -14.601  0.00  0.00    -0.312 OA
ATOM      2  O   UNL     1      31.624 -25.178 -12.890  0.00  0.00    -0.451 OA
ATOM      3  O   UNL     1      32.115 -21.833 -16.737  0.00  0.00    -0.423 OA
ATOM      4  O   UNL     1      28.647 -25.243 -16.886  0.00  0.00    -0.450 OA
ATOM      5  O   UNL     1      30.438 -23.408 -12.071  0.00  0.00    -0.247 OA
ATOM      6  O   UNL     1      32.652 -22.634 -18.819  0.00  0.00    -0.247 OA
ATOM      7  O   UNL     1      27.326 -23.681 -17.916  0.00  0.00    -0.250 OA
ATOM      8  C   UNL     1      31.802 -24.528 -15.185  0.00  0.00    +0.084 C 
ATOM      9  C   UNL     1      33.008 -23.599 -15.445  0.00  0.00    +0.106 C 
ATOM     10  C   UNL     1      30.786 -23.642 -14.465  0.00  0.00    +0.214 C 
ATOM     11  C   UNL     1      32.233 -25.552 -14.134  0.00  0.00    +0.172 C 
ATOM     12  C   UNL     1      33.962 -23.903 -14.257  0.00  0.00    +0.013 C 
ATOM     13  C   UNL     1      29.398 -23.951 -15.063  0.00  0.00    +0.167 C 
ATOM     14  C   UNL     1      31.033 -25.163 -16.347  0.00  0.00    +0.053 C 
ATOM     15  C   UNL     1      32.389 -22.211 -15.377  0.00  0.00    +0.293 C 
ATOM     16  C   UNL     1      33.743 -25.398 -14.013  0.00  0.00    +0.044 C 
ATOM     17  C   UNL     1      29.601 -25.251 -15.825  0.00  0.00    +0.197 C 
ATOM     18  C   UNL     1      33.654 -23.598 -16.822  0.00  0.00    +0.216 C 
ATOM     19  C   UNL     1      30.912 -24.026 -13.013  0.00  0.00    +0.344 C 
ATOM     20  C   UNL     1      28.870 -23.012 -16.151  0.00  0.00    +0.130 C 
ATOM     21  C   UNL     1      32.768 -22.666 -17.604  0.00  0.00    +0.346 C 
ATOM     22  C   UNL     1      28.167 -23.976 -17.080  0.00  0.00    +0.319 C 
ATOM     23  C   UNL     1      27.944 -21.909 -15.666  0.00  0.00    +0.014 C 
ENDROOT
BRANCH  12  24
ATOM     24  C   UNL     1      35.436 -23.569 -14.437  0.00  0.00    +0.000 C 
ATOM     25  C   UNL     1      36.169 -24.761 -15.079  0.00  0.00    +0.000 C 
ATOM     26  C   UNL     1      35.588 -22.337 -15.347  0.00  0.00    +0.000 C 
ATOM     27  C   UNL     1      36.075 -23.266 -13.069  0.00  0.00    +0.000 C 
ENDBRANCH  12  24
BRANCH  13  28
ATOM     28  O   UNL     1      28.405 -24.163 -14.066  0.00  0.00    -0.380 OA
ATOM     29  H   UNL     1      28.541 -25.031 -13.654  0.00  0.00    +0.211 HD
ENDBRANCH  13  28
BRANCH  18  30
ATOM     30  O   UNL     1      33.775 -24.875 -17.385  0.00  0.00    -0.374 OA
ATOM     31  H   UNL     1      34.652 -25.235 -17.184  0.00  0.00    +0.211 HD
ENDBRANCH  18  30
TORSDOF 3
ENDMDL
MODEL 2
REMARK VINA RESULT:      -2.0      2.624      6.662
REMARK  Name = 9909368
REMARK  3 active torsions:
REMARK  status: ('A' for Active; 'I' for Inactive)
REMARK    1  A    between atoms: C_12  and  C_24
REMARK    2  A    between atoms: C_13  and  O_28
REMARK    3  A    between atoms: C_18  and  O_30
REMARK                            x       y       z     vdW  Elec       q    Type
REMARK                         _______ _______ _______ _____ _____    ______ ____
ROOT
ATOM      1  O   UNL     1      35.298 -22.340 -14.264  0.00  0.00    -0.312 OA
ATOM      2  O   UNL     1      35.243 -23.069 -17.573  0.00  0.00    -0.451 OA
ATOM      3  O   UNL     1      34.086 -23.531 -12.606  0.00  0.00    -0.423 OA
ATOM      4  O   UNL     1      37.704 -26.153 -14.531  0.00  0.00    -0.450 OA
ATOM      5  O   UNL     1      36.415 -21.316 -16.698  0.00  0.00    -0.247 OA
ATOM      6  O   UNL     1      33.345 -25.563 -11.842  0.00  0.00    -0.247 OA
ATOM      7  O   UNL     1      38.794 -25.891 -12.534  0.00  0.00    -0.250 OA
ATOM      8  C   UNL     1      34.746 -24.275 -15.569  0.00  0.00    +0.084 C 
ATOM      9  C   UNL     1      33.465 -23.766 -14.874  0.00  0.00    +0.106 C 
ATOM     10  C   UNL     1      35.789 -23.194 -15.287  0.00  0.00    +0.214 C 
ATOM     11  C   UNL     1      34.509 -24.198 -17.078  0.00  0.00    +0.172 C 
ATOM     12  C   UNL     1      32.684 -23.068 -16.021  0.00  0.00    +0.013 C 
ATOM     13  C   UNL     1      37.109 -23.908 -14.928  0.00  0.00    +0.167 C 
ATOM     14  C   UNL     1      35.402 -25.591 -15.143  0.00  0.00    +0.053 C 
ATOM     15  C   UNL     1      34.005 -22.792 -13.837  0.00  0.00    +0.293 C 
ATOM     16  C   UNL     1      33.019 -23.930 -17.241  0.00  0.00    +0.044 C 
ATOM     17  C   UNL     1      36.890 -25.344 -15.378  0.00  0.00    +0.197 C 
ATOM     18  C   UNL     1      32.655 -24.731 -14.021  0.00  0.00    +0.216 C 
ATOM     19  C   UNL     1      35.866 -22.400 -16.566  0.00  0.00    +0.344 C 
ATOM     20  C   UNL     1      37.443 -24.076 -13.444  0.00  0.00    +0.130 C 
ATOM     21  C   UNL     1      33.382 -24.699 -12.704  0.00  0.00    +0.346 C 
ATOM     22  C   UNL     1      38.082 -25.446 -13.421  0.00  0.00    +0.319 C 
ATOM     23  C   UNL     1      38.355 -23.011 -12.857  0.00  0.00    +0.014 C 
ENDROOT
BRANCH  12  24
ATOM     24  C   UNL     1      31.182 -22.896 -15.846  0.00  0.00    +0.000 C 
ATOM     25  C   UNL     1      30.497 -24.275 -15.809  0.00  0.00    +0.000 C 
ATOM     26  C   UNL     1      30.888 -22.155 -14.528  0.00  0.00    +0.000 C 
ATOM     27  C   UNL     1      30.606 -22.081 -17.018  0.00  0.00    +0.000 C 
ENDBRANCH  12  24
BRANCH  13  28
ATOM     28  O   UNL     1      38.227 -23.380 -15.632  0.00  0.00    -0.380 OA
ATOM     29  H   UNL     1      39.047 -23.680 -15.208  0.00  0.00    +0.211 HD
ENDBRANCH  13  28
BRANCH  18  30
ATOM     30  O   UNL     1      32.542 -26.011 -14.578  0.00  0.00    -0.374 OA
ATOM     31  H   UNL     1      32.260 -25.937 -15.504  0.00  0.00    +0.211 HD
ENDBRANCH  18  30
TORSDOF 3
ENDMDL
MODEL 3
REMARK VINA RESULT:      -1.8      3.827      7.429
REMARK  Name = 9909368
REMARK  3 active torsions:
REMARK  status: ('A' for Active; 'I' for Inactive)
REMARK    1  A    between atoms: C_12  and  C_24
REMARK    2  A    between atoms: C_13  and  O_28
REMARK    3  A    between atoms: C_18  and  O_30
REMARK                            x       y       z     vdW  Elec       q    Type
REMARK                         _______ _______ _______ _____ _____    ______ ____
ROOT
ATOM      1  O   UNL     1      36.544 -26.206 -14.220  0.00  0.00    -0.312 OA
ATOM      2  O   UNL     1      35.822 -25.291 -11.038  0.00  0.00    -0.451 OA
ATOM      3  O   UNL     1      36.379 -24.767 -16.101  0.00  0.00    -0.423 OA
ATOM      4  O   UNL     1      39.999 -23.521 -13.099  0.00  0.00    -0.450 OA
ATOM      5  O   UNL     1      36.465 -27.404 -11.616  0.00  0.00    -0.247 OA
ATOM      6  O   UNL     1      36.686 -22.660 -16.954  0.00  0.00    -0.247 OA
ATOM      7  O   UNL     1      41.436 -24.294 -14.706  0.00  0.00    -0.250 OA
ATOM      8  C   UNL     1      36.394 -24.121 -13.043  0.00  0.00    +0.084 C 
ATOM      9  C   UNL     1      35.270 -24.174 -14.100  0.00  0.00    +0.106 C 
ATOM     10  C   UNL     1      37.002 -25.524 -13.062  0.00  0.00    +0.214 C 
ATOM     11  C   UNL     1      35.727 -24.008 -11.672  0.00  0.00    +0.172 C 
ATOM     12  C   UNL     1      33.996 -24.463 -13.260  0.00  0.00    +0.013 C 
ATOM     13  C   UNL     1      38.534 -25.365 -12.992  0.00  0.00    +0.167 C 
ATOM     14  C   UNL     1      37.580 -23.166 -13.202  0.00  0.00    +0.053 C 
ATOM     15  C   UNL     1      35.686 -25.343 -14.981  0.00  0.00    +0.293 C 
ATOM     16  C   UNL     1      34.263 -23.704 -11.958  0.00  0.00    +0.044 C 
ATOM     17  C   UNL     1      38.740 -23.922 -12.560  0.00  0.00    +0.197 C 
ATOM     18  C   UNL     1      35.150 -23.039 -15.106  0.00  0.00    +0.216 C 
ATOM     19  C   UNL     1      36.414 -26.206 -11.852  0.00  0.00    +0.344 C 
ATOM     20  C   UNL     1      39.314 -25.428 -14.308  0.00  0.00    +0.130 C 
ATOM     21  C   UNL     1      36.157 -23.419 -16.158  0.00  0.00    +0.346 C 
ATOM     22  C   UNL     1      40.389 -24.389 -14.083  0.00  0.00    +0.319 C 
ATOM     23  C   UNL     1      39.897 -26.787 -14.654  0.00  0.00    +0.014 C 
ENDROOT
BRANCH  12  24
ATOM     24  C   UNL     1      32.652 -24.088 -13.869  0.00  0.00    +0.000 C 
ATOM     25  C   UNL     1      32.156 -22.760 -13.265  0.00  0.00    +0.000 C 
ATOM     26  C   UNL     1      32.794 -23.924 -15.393  0.00  0.00    +0.000 C 
ATOM     27  C   UNL     1      31.618 -25.189 -13.575  0.00  0.00    +0.000 C 
ENDBRANCH  12  24
BRANCH  13  28
ATOM     28  O   UNL     1      39.131 -26.216 -12.020  0.00  0.00    -0.380 OA
ATOM     29  H   UNL     1      38.498 -26.384 -11.304  0.00  0.00    +0.211 HD
ENDBRANCH  13  28
BRANCH  18  30
ATOM     30  O   UNL     1      35.361 -21.772 -14.548  0.00  0.00    -0.374 OA
ATOM     31  H   UNL     1      34.507 -21.333 -14.410  0.00  0.00    +0.211 HD
ENDBRANCH  18  30
TORSDOF 3
ENDMDL
MODEL 4
REMARK VINA RESULT:      -1.5      2.075      4.857
REMARK  Name = 9909368
REMARK  3 active torsions:
REMARK  status: ('A' for Active; 'I' for Inactive)
REMARK    1  A    between atoms: C_12  and  C_24
REMARK    2  A    between atoms: C_13  and  O_28
REMARK    3  A    between atoms: C_18  and  O_30
REMARK                            x       y       z     vdW  Elec       q    Type
REMARK                         _______ _______ _______ _____ _____    ______ ____
ROOT
ATOM      1  O   UNL     1      34.208 -25.411 -15.405  0.00  0.00    -0.312 OA
ATOM      2  O   UNL     1      35.201 -22.712 -17.199  0.00  0.00    -0.451 OA
ATOM      3  O   UNL     1      34.699 -25.752 -13.108  0.00  0.00    -0.423 OA
ATOM      4  O   UNL     1      31.576 -22.093 -13.836  0.00  0.00    -0.450 OA
ATOM      5  O   UNL     1      34.027 -24.451 -18.100  0.00  0.00    -0.247 OA
ATOM      6  O   UNL     1      34.925 -24.823 -11.023  0.00  0.00    -0.247 OA
ATOM      7  O   UNL     1      29.959 -23.460 -12.963  0.00  0.00    -0.250 OA
ATOM      8  C   UNL     1      34.908 -23.180 -14.872  0.00  0.00    +0.084 C 
ATOM      9  C   UNL     1      35.961 -24.171 -14.331  0.00  0.00    +0.106 C 
ATOM     10  C   UNL     1      33.962 -24.045 -15.704  0.00  0.00    +0.214 C 
ATOM     11  C   UNL     1      35.608 -22.282 -15.892  0.00  0.00    +0.172 C 
ATOM     12  C   UNL     1      37.135 -24.039 -15.339  0.00  0.00    +0.013 C 
ATOM     13  C   UNL     1      32.523 -23.584 -15.396  0.00  0.00    +0.167 C 
ATOM     14  C   UNL     1      34.003 -22.395 -13.918  0.00  0.00    +0.053 C 
ATOM     15  C   UNL     1      35.243 -25.510 -14.416  0.00  0.00    +0.293 C 
ATOM     16  C   UNL     1      37.096 -22.558 -15.722  0.00  0.00    +0.044 C 
ATOM     17  C   UNL     1      32.701 -22.244 -14.701  0.00  0.00    +0.197 C 
ATOM     18  C   UNL     1      36.348 -24.107 -12.861  0.00  0.00    +0.216 C 
ATOM     19  C   UNL     1      34.379 -23.794 -17.132  0.00  0.00    +0.344 C 
ATOM     20  C   UNL     1      31.728 -24.387 -14.363  0.00  0.00    +0.130 C 
ATOM     21  C   UNL     1      35.257 -24.901 -12.195  0.00  0.00    +0.346 C 
ATOM     22  C   UNL     1      30.958 -23.300 -13.648  0.00  0.00    +0.319 C 
ATOM     23  C   UNL     1      30.809 -25.454 -14.934  0.00  0.00    +0.014 C 
ENDROOT
BRANCH  12  24
ATOM     24  C   UNL     1      38.518 -24.467 -14.869  0.00  0.00    +0.000 C 
ATOM     25  C   UNL     1      38.591 -26.003 -14.786  0.00  0.00    +0.000 C 
ATOM     26  C   UNL     1      39.587 -23.966 -15.856  0.00  0.00    +0.000 C 
ATOM     27  C   UNL     1      38.804 -23.876 -13.476  0.00  0.00    +0.000 C 
ENDBRANCH  12  24
BRANCH  13  28
ATOM     28  O   UNL     1      31.746 -23.382 -16.572  0.00  0.00    -0.380 OA
ATOM     29  H   UNL     1      32.190 -23.799 -17.328  0.00  0.00    +0.211 HD
ENDBRANCH  13  28
BRANCH  18  30
ATOM     30  O   UNL     1      36.479 -22.800 -12.374  0.00  0.00    -0.374 OA
ATOM     31  H   UNL     1      35.599 -22.428 -12.205  0.00  0.00    +0.211 HD
ENDBRANCH  18  30
TORSDOF 3
ENDMDL
MODEL 5
REMARK VINA RESULT:      -0.8      2.189      5.870
REMARK  Name = 9909368
REMARK  3 active torsions:
REMARK  status: ('A' for Active; 'I' for Inactive)
REMARK    1  A    between atoms: C_12  and  C_24
REMARK    2  A    between atoms: C_13  and  O_28
REMARK    3  A    between atoms: C_18  and  O_30
REMARK                            x       y       z     vdW  Elec       q    Type
REMARK                         _______ _______ _______ _____ _____    ______ ____
ROOT
ATOM      1  O   UNL     1      34.365 -25.388 -14.783  0.00  0.00    -0.312 OA
ATOM      2  O   UNL     1      33.283 -23.153 -12.476  0.00  0.00    -0.451 OA
ATOM      3  O   UNL     1      34.047 -25.162 -17.124  0.00  0.00    -0.423 OA
ATOM      4  O   UNL     1      37.167 -21.888 -15.330  0.00  0.00    -0.450 OA
ATOM      5  O   UNL     1      34.353 -25.095 -11.931  0.00  0.00    -0.247 OA
ATOM      6  O   UNL     1      33.999 -23.761 -18.940  0.00  0.00    -0.247 OA
ATOM      7  O   UNL     1      38.823 -23.068 -16.385  0.00  0.00    -0.250 OA
ATOM      8  C   UNL     1      33.747 -23.071 -14.821  0.00  0.00    +0.084 C 
ATOM      9  C   UNL     1      32.722 -23.870 -15.654  0.00  0.00    +0.106 C 
ATOM     10  C   UNL     1      34.610 -24.140 -14.151  0.00  0.00    +0.214 C 
ATOM     11  C   UNL     1      32.985 -22.413 -13.668  0.00  0.00    +0.172 C 
ATOM     12  C   UNL     1      31.476 -23.937 -14.729  0.00  0.00    +0.013 C 
ATOM     13  C   UNL     1      36.077 -23.670 -14.239  0.00  0.00    +0.167 C 
ATOM     14  C   UNL     1      34.736 -22.116 -15.494  0.00  0.00    +0.053 C 
ATOM     15  C   UNL     1      33.407 -25.216 -15.837  0.00  0.00    +0.293 C 
ATOM     16  C   UNL     1      31.511 -22.590 -14.005  0.00  0.00    +0.044 C 
ATOM     17  C   UNL     1      35.976 -22.199 -14.608  0.00  0.00    +0.197 C 
ATOM     18  C   UNL     1      32.450 -23.448 -17.091  0.00  0.00    +0.216 C 
ATOM     19  C   UNL     1      34.089 -24.217 -12.739  0.00  0.00    +0.344 C 
ATOM     20  C   UNL     1      36.935 -24.236 -15.374  0.00  0.00    +0.130 C 
ATOM     21  C   UNL     1      33.575 -24.101 -17.847  0.00  0.00    +0.346 C 
ATOM     22  C   UNL     1      37.777 -23.038 -15.754  0.00  0.00    +0.319 C 
ATOM     23  C   UNL     1      37.788 -25.439 -15.008  0.00  0.00    +0.014 C 
ENDROOT
BRANCH  12  24
ATOM     24  C   UNL     1      30.127 -24.193 -15.384  0.00  0.00    +0.000 C 
ATOM     25  C   UNL     1      29.155 -24.810 -14.360  0.00  0.00    +0.000 C 
ATOM     26  C   UNL     1      29.535 -22.870 -15.903  0.00  0.00    +0.000 C 
ATOM     27  C   UNL     1      30.293 -25.166 -16.565  0.00  0.00    +0.000 C 
ENDBRANCH  12  24
BRANCH  13  28
ATOM     28  O   UNL     1      36.764 -23.777 -12.997  0.00  0.00    -0.380 OA
ATOM     29  H   UNL     1      36.420 -23.112 -12.379  0.00  0.00    +0.211 HD
ENDBRANCH  13  28
BRANCH  18  30
ATOM     30  O   UNL     1      32.380 -22.059 -17.262  0.00  0.00    -0.374 OA
ATOM     31  H   UNL     1      33.026 -21.629 -16.681  0.00  0.00    +0.211 HD
ENDBRANCH  18  30
TORSDOF 3
ENDMDL
MODEL 6
REMARK VINA RESULT:      -0.8      3.056      5.743
REMARK  Name = 9909368
REMARK  3 active torsions:
REMARK  status: ('A' for Active; 'I' for Inactive)
REMARK    1  A    between atoms: C_12  and  C_24
REMARK    2  A    between atoms: C_13  and  O_28
REMARK    3  A    between atoms: C_18  and  O_30
REMARK                            x       y       z     vdW  Elec       q    Type
REMARK                         _______ _______ _______ _____ _____    ______ ____
ROOT
ATOM      1  O   UNL     1      36.052 -24.368 -15.990  0.00  0.00    -0.312 OA
ATOM      2  O   UNL     1      37.089 -22.043 -13.753  0.00  0.00    -0.451 OA
ATOM      3  O   UNL     1      36.106 -26.711 -15.614  0.00  0.00    -0.423 OA
ATOM      4  O   UNL     1      32.818 -24.440 -12.838  0.00  0.00    -0.450 OA
ATOM      5  O   UNL     1      36.315 -21.517 -15.835  0.00  0.00    -0.247 OA
ATOM      6  O   UNL     1      35.806 -28.437 -14.132  0.00  0.00    -0.247 OA
ATOM      7  O   UNL     1      31.215 -25.404 -14.159  0.00  0.00    -0.250 OA
ATOM      8  C   UNL     1      36.387 -24.325 -13.615  0.00  0.00    +0.084 C 
ATOM      9  C   UNL     1      37.410 -25.297 -14.242  0.00  0.00    +0.106 C 
ATOM     10  C   UNL     1      35.726 -23.643 -14.813  0.00  0.00    +0.214 C 
ATOM     11  C   UNL     1      37.178 -23.212 -12.926  0.00  0.00    +0.172 C 
ATOM     12  C   UNL     1      38.742 -24.498 -14.200  0.00  0.00    +0.013 C 
ATOM     13  C   UNL     1      34.213 -23.565 -14.524  0.00  0.00    +0.167 C 
ATOM     14  C   UNL     1      35.230 -24.845 -12.758  0.00  0.00    +0.053 C 
ATOM     15  C   UNL     1      36.872 -25.496 -15.651  0.00  0.00    +0.293 C 
ATOM     16  C   UNL     1      38.622 -23.695 -12.903  0.00  0.00    +0.044 C 
ATOM     17  C   UNL     1      34.103 -23.853 -13.035  0.00  0.00    +0.197 C 
ATOM     18  C   UNL     1      37.485 -26.725 -13.721  0.00  0.00    +0.216 C 
ATOM     19  C   UNL     1      36.392 -22.292 -14.893  0.00  0.00    +0.344 C 
ATOM     20  C   UNL     1      33.318 -24.646 -15.134  0.00  0.00    +0.130 C 
ATOM     21  C   UNL     1      36.374 -27.410 -14.470  0.00  0.00    +0.346 C 
ATOM     22  C   UNL     1      32.308 -24.874 -14.032  0.00  0.00    +0.319 C 
ATOM     23  C   UNL     1      32.653 -24.274 -16.449  0.00  0.00    +0.014 C 
ENDROOT
BRANCH  12  24
ATOM     24  C   UNL     1      40.039 -25.291 -14.257  0.00  0.00    +0.000 C 
ATOM     25  C   UNL     1      41.236 -24.330 -14.378  0.00  0.00    +0.000 C 
ATOM     26  C   UNL     1      40.198 -26.132 -12.976  0.00  0.00    +0.000 C 
ATOM     27  C   UNL     1      40.027 -26.231 -15.476  0.00  0.00    +0.000 C 
ENDBRANCH  12  24
BRANCH  13  28
ATOM     28  O   UNL     1      33.672 -22.272 -14.774  0.00  0.00    -0.380 OA
ATOM     29  H   UNL     1      34.284 -21.596 -14.443  0.00  0.00    +0.211 HD
ENDBRANCH  13  28
BRANCH  18  30
ATOM     30  O   UNL     1      37.374 -26.819 -12.328  0.00  0.00    -0.374 OA
ATOM     31  H   UNL     1      36.795 -26.112 -12.001  0.00  0.00    +0.211 HD
ENDBRANCH  18  30
TORSDOF 3
ENDMDL
MODEL 7
REMARK VINA RESULT:      -0.6     13.206     15.371
REMARK  Name = 9909368
REMARK  3 active torsions:
REMARK  status: ('A' for Active; 'I' for Inactive)
REMARK    1  A    between atoms: C_12  and  C_24
REMARK    2  A    between atoms: C_13  and  O_28
REMARK    3  A    between atoms: C_18  and  O_30
REMARK                            x       y       z     vdW  Elec       q    Type
REMARK                         _______ _______ _______ _____ _____    ______ ____
ROOT
ATOM      1  O   UNL     1      33.808  -9.743 -22.000  0.00  0.00    -0.312 OA
ATOM      2  O   UNL     1      31.296 -10.668 -19.921  0.00  0.00    -0.451 OA
ATOM      3  O   UNL     1      34.204 -10.699 -24.137  0.00  0.00    -0.423 OA
ATOM      4  O   UNL     1      30.126  -8.048 -23.995  0.00  0.00    -0.450 OA
ATOM      5  O   UNL     1      32.847  -9.082 -19.381  0.00  0.00    -0.247 OA
ATOM      6  O   UNL     1      33.306 -11.532 -26.076  0.00  0.00    -0.247 OA
ATOM      7  O   UNL     1      31.234  -6.500 -25.268  0.00  0.00    -0.250 OA
ATOM      8  C   UNL     1      31.702 -10.859 -22.270  0.00  0.00    +0.084 C 
ATOM      9  C   UNL     1      32.835 -11.856 -22.595  0.00  0.00    +0.106 C 
ATOM     10  C   UNL     1      32.422  -9.632 -21.711  0.00  0.00    +0.214 C 
ATOM     11  C   UNL     1      30.923 -11.425 -21.082  0.00  0.00    +0.172 C 
ATOM     12  C   UNL     1      32.885 -12.771 -21.341  0.00  0.00    +0.013 C 
ATOM     13  C   UNL     1      31.751  -8.385 -22.321  0.00  0.00    +0.167 C 
ATOM     14  C   UNL     1      30.786 -10.322 -23.373  0.00  0.00    +0.053 C 
ATOM     15  C   UNL     1      34.053 -10.954 -22.730  0.00  0.00    +0.293 C 
ATOM     16  C   UNL     1      31.416 -12.856 -20.919  0.00  0.00    +0.044 C 
ATOM     17  C   UNL     1      30.448  -8.909 -22.903  0.00  0.00    +0.197 C 
ATOM     18  C   UNL     1      32.820 -12.578 -23.935  0.00  0.00    +0.216 C 
ATOM     19  C   UNL     1      32.244  -9.738 -20.217  0.00  0.00    +0.344 C 
ATOM     20  C   UNL     1      32.421  -7.745 -23.540  0.00  0.00    +0.130 C 
ATOM     21  C   UNL     1      33.440 -11.570 -24.863  0.00  0.00    +0.346 C 
ATOM     22  C   UNL     1      31.227  -7.325 -24.367  0.00  0.00    +0.319 C 
ATOM     23  C   UNL     1      33.344  -6.576 -23.236  0.00  0.00    +0.014 C 
ENDROOT
BRANCH  12  24
ATOM     24  C   UNL     1      33.509 -14.149 -21.500  0.00  0.00    +0.000 C 
ATOM     25  C   UNL     1      32.406 -15.222 -21.550  0.00  0.00    +0.000 C 
ATOM     26  C   UNL     1      34.325 -14.209 -22.805  0.00  0.00    +0.000 C 
ATOM     27  C   UNL     1      34.441 -14.443 -20.311  0.00  0.00    +0.000 C 
ENDBRANCH  12  24
BRANCH  13  28
ATOM     28  O   UNL     1      31.443  -7.394 -21.347  0.00  0.00    -0.380 OA
ATOM     29  H   UNL     1      31.270  -7.823 -20.493  0.00  0.00    +0.211 HD
ENDBRANCH  13  28
BRANCH  18  30
ATOM     30  O   UNL     1      31.544 -13.004 -24.326  0.00  0.00    -0.374 OA
ATOM     31  H   UNL     1      31.478 -12.979 -25.293  0.00  0.00    +0.211 HD
ENDBRANCH  18  30
TORSDOF 3
ENDMDL
MODEL 8
REMARK VINA RESULT:      -0.4      3.177      6.290
REMARK  Name = 9909368
REMARK  3 active torsions:
REMARK  status: ('A' for Active; 'I' for Inactive)
REMARK    1  A    between atoms: C_12  and  C_24
REMARK    2  A    between atoms: C_13  and  O_28
REMARK    3  A    between atoms: C_18  and  O_30
REMARK                            x       y       z     vdW  Elec       q    Type
REMARK                         _______ _______ _______ _____ _____    ______ ____
ROOT
ATOM      1  O   UNL     1      35.322 -25.496 -15.005  0.00  0.00    -0.312 OA
ATOM      2  O   UNL     1      32.611 -23.634 -14.190  0.00  0.00    -0.451 OA
ATOM      3  O   UNL     1      37.291 -24.634 -16.013  0.00  0.00    -0.423 OA
ATOM      4  O   UNL     1      36.723 -23.133 -11.419  0.00  0.00    -0.450 OA
ATOM      5  O   UNL     1      32.714 -25.894 -13.883  0.00  0.00    -0.247 OA
ATOM      6  O   UNL     1      38.807 -22.916 -16.130  0.00  0.00    -0.247 OA
ATOM      7  O   UNL     1      38.460 -24.523 -10.878  0.00  0.00    -0.250 OA
ATOM      8  C   UNL     1      34.921 -23.167 -14.599  0.00  0.00    +0.084 C 
ATOM      9  C   UNL     1      35.307 -23.351 -16.082  0.00  0.00    +0.106 C 
ATOM     10  C   UNL     1      34.758 -24.591 -14.068  0.00  0.00    +0.214 C 
ATOM     11  C   UNL     1      33.509 -22.580 -14.565  0.00  0.00    +0.172 C 
ATOM     12  C   UNL     1      33.954 -23.206 -16.831  0.00  0.00    +0.013 C 
ATOM     13  C   UNL     1      35.415 -24.642 -12.673  0.00  0.00    +0.167 C 
ATOM     14  C   UNL     1      35.871 -22.476 -13.618  0.00  0.00    +0.053 C 
ATOM     15  C   UNL     1      35.863 -24.767 -16.116  0.00  0.00    +0.293 C 
ATOM     16  C   UNL     1      33.210 -22.160 -15.997  0.00  0.00    +0.044 C 
ATOM     17  C   UNL     1      35.594 -23.181 -12.292  0.00  0.00    +0.197 C 
ATOM     18  C   UNL     1      36.461 -22.538 -16.650  0.00  0.00    +0.216 C 
ATOM     19  C   UNL     1      33.268 -24.815 -14.036  0.00  0.00    +0.344 C 
ATOM     20  C   UNL     1      36.845 -25.182 -12.583  0.00  0.00    +0.130 C 
ATOM     21  C   UNL     1      37.666 -23.338 -16.236  0.00  0.00    +0.346 C 
ATOM     22  C   UNL     1      37.449 -24.289 -11.523  0.00  0.00    +0.319 C 
ATOM     23  C   UNL     1      36.963 -26.654 -12.222  0.00  0.00    +0.014 C 
ENDROOT
BRANCH  12  24
ATOM     24  C   UNL     1      34.002 -22.827 -18.304  0.00  0.00    +0.000 C 
ATOM     25  C   UNL     1      32.796 -21.936 -18.655  0.00  0.00    +0.000 C 
ATOM     26  C   UNL     1      35.300 -22.056 -18.606  0.00  0.00    +0.000 C 
ATOM     27  C   UNL     1      33.957 -24.096 -19.174  0.00  0.00    +0.000 C 
ENDBRANCH  12  24
BRANCH  13  28
ATOM     28  O   UNL     1      34.587 -25.264 -11.697  0.00  0.00    -0.380 OA
ATOM     29  H   UNL     1      34.947 -26.137 -11.477  0.00  0.00    +0.211 HD
ENDBRANCH  13  28
BRANCH  18  30
ATOM     30  O   UNL     1      36.481 -21.209 -16.207  0.00  0.00    -0.374 OA
ATOM     31  H   UNL     1      35.581 -20.847 -16.232  0.00  0.00    +0.211 HD
ENDBRANCH  18  30
TORSDOF 3
ENDMDL
MODEL 9
REMARK VINA RESULT:      -0.2      2.621      4.199
REMARK  Name = 9909368
REMARK  3 active torsions:
REMARK  status: ('A' for Active; 'I' for Inactive)
REMARK    1  A    between atoms: C_12  and  C_24
REMARK    2  A    between atoms: C_13  and  O_28
REMARK    3  A    between atoms: C_18  and  O_30
REMARK                            x       y       z     vdW  Elec       q    Type
REMARK                         _______ _______ _______ _____ _____    ______ ____
ROOT
ATOM      1  O   UNL     1      34.500 -21.882 -15.287  0.00  0.00    -0.312 OA
ATOM      2  O   UNL     1      32.648 -24.274 -13.759  0.00  0.00    -0.451 OA
ATOM      3  O   UNL     1      36.784 -22.131 -15.886  0.00  0.00    -0.423 OA
ATOM      4  O   UNL     1      33.829 -24.927 -18.556  0.00  0.00    -0.450 OA
ATOM      5  O   UNL     1      31.839 -22.201 -14.270  0.00  0.00    -0.247 OA
ATOM      6  O   UNL     1      38.427 -23.506 -16.706  0.00  0.00    -0.247 OA
ATOM      7  O   UNL     1      34.261 -23.506 -20.300  0.00  0.00    -0.250 OA
ATOM      8  C   UNL     1      34.656 -24.265 -15.058  0.00  0.00    +0.084 C 
ATOM      9  C   UNL     1      35.841 -23.617 -14.310  0.00  0.00    +0.106 C 
ATOM     10  C   UNL     1      33.767 -23.087 -15.456  0.00  0.00    +0.214 C 
ATOM     11  C   UNL     1      33.832 -25.038 -14.027  0.00  0.00    +0.172 C 
ATOM     12  C   UNL     1      35.438 -23.742 -12.815  0.00  0.00    +0.013 C 
ATOM     13  C   UNL     1      33.293 -23.334 -16.903  0.00  0.00    +0.167 C 
ATOM     14  C   UNL     1      34.879 -25.057 -16.349  0.00  0.00    +0.053 C 
ATOM     15  C   UNL     1      35.823 -22.184 -14.818  0.00  0.00    +0.293 C 
ATOM     16  C   UNL     1      34.691 -25.077 -12.770  0.00  0.00    +0.044 C 
ATOM     17  C   UNL     1      33.606 -24.801 -17.152  0.00  0.00    +0.197 C 
ATOM     18  C   UNL     1      37.257 -24.061 -14.647  0.00  0.00    +0.216 C 
ATOM     19  C   UNL     1      32.647 -23.101 -14.448  0.00  0.00    +0.344 C 
ATOM     20  C   UNL     1      34.061 -22.638 -18.029  0.00  0.00    +0.130 C 
ATOM     21  C   UNL     1      37.580 -23.242 -15.867  0.00  0.00    +0.346 C 
ATOM     22  C   UNL     1      34.054 -23.695 -19.111  0.00  0.00    +0.319 C 
ATOM     23  C   UNL     1      33.464 -21.326 -18.511  0.00  0.00    +0.014 C 
ENDROOT
BRANCH  12  24
ATOM     24  C   UNL     1      36.551 -23.682 -11.779  0.00  0.00    +0.000 C 
ATOM     25  C   UNL     1      37.403 -24.963 -11.849  0.00  0.00    +0.000 C 
ATOM     26  C   UNL     1      37.454 -22.464 -12.049  0.00  0.00    +0.000 C 
ATOM     27  C   UNL     1      35.949 -23.557 -10.368  0.00  0.00    +0.000 C 
ENDBRANCH  12  24
BRANCH  13  28
ATOM     28  O   UNL     1      31.892 -23.139 -17.063  0.00  0.00    -0.380 OA
ATOM     29  H   UNL     1      31.434 -23.989 -16.963  0.00  0.00    +0.211 HD
ENDBRANCH  13  28
BRANCH  18  30
ATOM     30  O   UNL     1      37.379 -25.443 -14.840  0.00  0.00    -0.374 OA
ATOM     31  H   UNL     1      36.786 -25.908 -14.230  0.00  0.00    +0.211 HD
ENDBRANCH  18  30
TORSDOF 3
ENDMDL
