MODEL 1
REMARK VINA RESULT:      -6.9      0.000      0.000
REMARK  Name = 68911
REMARK  1 active torsions:
REMARK  status: ('A' for Active; 'I' for Inactive)
REMARK    1  A    between atoms: C_16  and  O_20
REMARK                            x       y       z     vdW  Elec       q    Type
REMARK                         _______ _______ _______ _____ _____    ______ ____
ROOT
ATOM      1  O   UNL     1      34.306 -25.274 -15.337  0.00  0.00    -0.218 OA
ATOM      2  O   UNL     1      33.175 -22.801 -14.315  0.00  0.00    -0.306 OA
ATOM      3  O   UNL     1      34.384 -23.953 -12.691  0.00  0.00    -0.304 OA
ATOM      4  O   UNL     1      32.977 -25.113 -14.754  0.00  0.00    -0.197 OA
ATOM      5  C   UNL     1      35.124 -24.110 -15.045  0.00  0.00    +0.178 C 
ATOM      6  C   UNL     1      35.258 -23.383 -16.422  0.00  0.00    +0.033 C 
ATOM      7  C   UNL     1      36.491 -24.676 -14.566  0.00  0.00    +0.038 C 
ATOM      8  C   UNL     1      36.415 -22.349 -16.445  0.00  0.00    +0.003 C 
ATOM      9  C   UNL     1      34.486 -23.241 -13.931  0.00  0.00    +0.268 C 
ATOM     10  C   UNL     1      37.609 -23.622 -14.622  0.00  0.00    +0.003 C 
ATOM     11  C   UNL     1      36.328 -25.342 -13.173  0.00  0.00    +0.059 C 
ATOM     12  C   UNL     1      33.942 -22.741 -16.919  0.00  0.00    +0.008 C 
ATOM     13  C   UNL     1      37.728 -23.002 -16.005  0.00  0.00    +0.000 C 
ATOM     14  C   UNL     1      32.504 -23.803 -15.083  0.00  0.00    +0.221 C 
ATOM     15  C   UNL     1      32.654 -23.502 -16.585  0.00  0.00    +0.059 C 
ATOM     16  C   UNL     1      35.621 -24.424 -12.164  0.00  0.00    +0.237 C 
ATOM     17  C   UNL     1      36.615 -21.714 -17.827  0.00  0.00    +0.000 C 
ATOM     18  C   UNL     1      37.639 -25.897 -12.612  0.00  0.00    +0.005 C 
ATOM     19  C   UNL     1      31.030 -23.770 -14.682  0.00  0.00    +0.064 C 
ENDROOT
BRANCH  16  20
ATOM     20  O   UNL     1      36.461 -23.360 -11.734  0.00  0.00    -0.328 OA
ATOM     21  C   UNL     1      36.503 -23.270 -10.316  0.00  0.00    +0.177 C 
ENDBRANCH  16  20
TORSDOF 1
ENDMDL
MODEL 2
REMARK VINA RESULT:      -6.1     15.105     17.521
REMARK  Name = 68911
REMARK  1 active torsions:
REMARK  status: ('A' for Active; 'I' for Inactive)
REMARK    1  A    between atoms: C_16  and  O_20
REMARK                            x       y       z     vdW  Elec       q    Type
REMARK                         _______ _______ _______ _____ _____    ______ ____
ROOT
ATOM      1  O   UNL     1      31.191  -8.131 -23.833  0.00  0.00    -0.218 OA
ATOM      2  O   UNL     1      33.135  -6.725 -22.194  0.00  0.00    -0.306 OA
ATOM      3  O   UNL     1      31.804  -8.167 -20.939  0.00  0.00    -0.304 OA
ATOM      4  O   UNL     1      31.003  -6.825 -23.206  0.00  0.00    -0.197 OA
ATOM      5  C   UNL     1      32.352  -8.795 -23.266  0.00  0.00    +0.178 C 
ATOM      6  C   UNL     1      33.412  -8.753 -24.414  0.00  0.00    +0.033 C 
ATOM      7  C   UNL     1      31.892 -10.251 -22.971  0.00  0.00    +0.038 C 
ATOM      8  C   UNL     1      34.578  -9.753 -24.191  0.00  0.00    +0.003 C 
ATOM      9  C   UNL     1      32.811  -8.103 -21.958  0.00  0.00    +0.268 C 
ATOM     10  C   UNL     1      33.080 -11.207 -22.773  0.00  0.00    +0.003 C 
ATOM     11  C   UNL     1      30.882 -10.256 -21.792  0.00  0.00    +0.059 C 
ATOM     12  C   UNL     1      33.957  -7.336 -24.709  0.00  0.00    +0.008 C 
ATOM     13  C   UNL     1      34.036 -11.166 -23.954  0.00  0.00    +0.000 C 
ATOM     14  C   UNL     1      32.269  -6.159 -23.182  0.00  0.00    +0.221 C 
ATOM     15  C   UNL     1      32.955  -6.186 -24.560  0.00  0.00    +0.059 C 
ATOM     16  C   UNL     1      31.404  -9.483 -20.570  0.00  0.00    +0.237 C 
ATOM     17  C   UNL     1      35.561  -9.790 -25.368  0.00  0.00    +0.000 C 
ATOM     18  C   UNL     1      30.404 -11.659 -21.412  0.00  0.00    +0.005 C 
ATOM     19  C   UNL     1      31.983  -4.719 -22.762  0.00  0.00    +0.064 C 
ENDROOT
BRANCH  16  20
ATOM     20  O   UNL     1      32.438 -10.189 -19.896  0.00  0.00    -0.328 OA
ATOM     21  C   UNL     1      32.043 -10.565 -18.583  0.00  0.00    +0.177 C 
ENDBRANCH  16  20
TORSDOF 1
ENDMDL
MODEL 3
REMARK VINA RESULT:      -6.1      1.378      4.686
REMARK  Name = 68911
REMARK  1 active torsions:
REMARK  status: ('A' for Active; 'I' for Inactive)
REMARK    1  A    between atoms: C_16  and  O_20
REMARK                            x       y       z     vdW  Elec       q    Type
REMARK                         _______ _______ _______ _____ _____    ______ ____
ROOT
ATOM      1  O   UNL     1      34.245 -22.644 -13.905  0.00  0.00    -0.218 OA
ATOM      2  O   UNL     1      35.066 -25.329 -14.648  0.00  0.00    -0.306 OA
ATOM      3  O   UNL     1      32.869 -25.262 -13.876  0.00  0.00    -0.304 OA
ATOM      4  O   UNL     1      34.907 -23.612 -13.035  0.00  0.00    -0.197 OA
ATOM      5  C   UNL     1      33.748 -23.303 -15.101  0.00  0.00    +0.178 C 
ATOM      6  C   UNL     1      34.690 -22.790 -16.238  0.00  0.00    +0.033 C 
ATOM      7  C   UNL     1      32.296 -22.781 -15.287  0.00  0.00    +0.038 C 
ATOM      8  C   UNL     1      34.106 -23.032 -17.655  0.00  0.00    +0.003 C 
ATOM      9  C   UNL     1      33.745 -24.844 -14.931  0.00  0.00    +0.268 C 
ATOM     10  C   UNL     1      31.767 -23.028 -16.709  0.00  0.00    +0.003 C 
ATOM     11  C   UNL     1      31.381 -23.354 -14.171  0.00  0.00    +0.059 C 
ATOM     12  C   UNL     1      36.135 -23.331 -16.142  0.00  0.00    +0.008 C 
ATOM     13  C   UNL     1      32.695 -22.446 -17.763  0.00  0.00    +0.000 C 
ATOM     14  C   UNL     1      35.790 -24.399 -13.839  0.00  0.00    +0.221 C 
ATOM     15  C   UNL     1      36.691 -23.521 -14.727  0.00  0.00    +0.059 C 
ATOM     16  C   UNL     1      31.507 -24.880 -14.038  0.00  0.00    +0.237 C 
ATOM     17  C   UNL     1      34.978 -22.433 -18.766  0.00  0.00    +0.000 C 
ATOM     18  C   UNL     1      29.922 -22.915 -14.301  0.00  0.00    +0.005 C 
ATOM     19  C   UNL     1      36.641 -25.212 -12.865  0.00  0.00    +0.064 C 
ENDROOT
BRANCH  16  20
ATOM     20  O   UNL     1      30.883 -25.562 -15.119  0.00  0.00    -0.328 OA
ATOM     21  C   UNL     1      29.508 -25.807 -14.857  0.00  0.00    +0.177 C 
ENDBRANCH  16  20
TORSDOF 1
ENDMDL
MODEL 4
REMARK VINA RESULT:      -5.9     12.066     14.912
REMARK  Name = 68911
REMARK  1 active torsions:
REMARK  status: ('A' for Active; 'I' for Inactive)
REMARK    1  A    between atoms: C_16  and  O_20
REMARK                            x       y       z     vdW  Elec       q    Type
REMARK                         _______ _______ _______ _____ _____    ______ ____
ROOT
ATOM      1  O   UNL     1      34.796 -13.406 -22.823  0.00  0.00    -0.218 OA
ATOM      2  O   UNL     1      32.002 -13.856 -22.169  0.00  0.00    -0.306 OA
ATOM      3  O   UNL     1      32.546 -11.591 -22.199  0.00  0.00    -0.304 OA
ATOM      4  O   UNL     1      34.252 -13.632 -21.487  0.00  0.00    -0.197 OA
ATOM      5  C   UNL     1      33.724 -13.106 -23.757  0.00  0.00    +0.178 C 
ATOM      6  C   UNL     1      33.633 -14.382 -24.655  0.00  0.00    +0.033 C 
ATOM      7  C   UNL     1      34.214 -11.874 -24.568  0.00  0.00    +0.038 C 
ATOM      8  C   UNL     1      32.847 -14.135 -25.970  0.00  0.00    +0.003 C 
ATOM      9  C   UNL     1      32.409 -12.766 -23.009  0.00  0.00    +0.268 C 
ATOM     10  C   UNL     1      33.418 -11.679 -25.868  0.00  0.00    +0.003 C 
ATOM     11  C   UNL     1      34.240 -10.618 -23.656  0.00  0.00    +0.059 C 
ATOM     12  C   UNL     1      33.087 -15.627 -23.918  0.00  0.00    +0.008 C 
ATOM     13  C   UNL     1      33.426 -12.935 -26.725  0.00  0.00    +0.000 C 
ATOM     14  C   UNL     1      33.137 -14.520 -21.607  0.00  0.00    +0.221 C 
ATOM     15  C   UNL     1      33.485 -15.764 -22.444  0.00  0.00    +0.059 C 
ATOM     16  C   UNL     1      32.914 -10.411 -22.907  0.00  0.00    +0.237 C 
ATOM     17  C   UNL     1      32.850 -15.354 -26.901  0.00  0.00    +0.000 C 
ATOM     18  C   UNL     1      34.680  -9.349 -24.388  0.00  0.00    +0.005 C 
ATOM     19  C   UNL     1      32.764 -14.928 -20.183  0.00  0.00    +0.064 C 
ENDROOT
BRANCH  16  20
ATOM     20  O   UNL     1      31.879  -9.958 -23.771  0.00  0.00    -0.328 OA
ATOM     21  C   UNL     1      31.280  -8.765 -23.285  0.00  0.00    +0.177 C 
ENDBRANCH  16  20
TORSDOF 1
ENDMDL
MODEL 5
REMARK VINA RESULT:      -5.8     15.978     18.524
REMARK  Name = 68911
REMARK  1 active torsions:
REMARK  status: ('A' for Active; 'I' for Inactive)
REMARK    1  A    between atoms: C_16  and  O_20
REMARK                            x       y       z     vdW  Elec       q    Type
REMARK                         _______ _______ _______ _____ _____    ______ ____
ROOT
ATOM      1  O   UNL     1      34.568  -7.412 -22.663  0.00  0.00    -0.218 OA
ATOM      2  O   UNL     1      33.326  -9.063 -24.705  0.00  0.00    -0.306 OA
ATOM      3  O   UNL     1      32.899  -9.852 -22.556  0.00  0.00    -0.304 OA
ATOM      4  O   UNL     1      35.187  -8.542 -23.349  0.00  0.00    -0.197 OA
ATOM      5  C   UNL     1      33.133  -7.414 -22.892  0.00  0.00    +0.178 C 
ATOM      6  C   UNL     1      32.897  -6.200 -23.848  0.00  0.00    +0.033 C 
ATOM      7  C   UNL     1      32.492  -7.171 -21.496  0.00  0.00    +0.038 C 
ATOM      8  C   UNL     1      31.411  -5.757 -23.901  0.00  0.00    +0.003 C 
ATOM      9  C   UNL     1      32.659  -8.772 -23.468  0.00  0.00    +0.268 C 
ATOM     10  C   UNL     1      31.026  -6.719 -21.600  0.00  0.00    +0.003 C 
ATOM     11  C   UNL     1      32.700  -8.418 -20.595  0.00  0.00    +0.059 C 
ATOM     12  C   UNL     1      33.457  -6.411 -25.274  0.00  0.00    +0.008 C 
ATOM     13  C   UNL     1      30.877  -5.496 -22.490  0.00  0.00    +0.000 C 
ATOM     14  C   UNL     1      34.675  -8.587 -24.683  0.00  0.00    +0.221 C 
ATOM     15  C   UNL     1      34.758  -7.214 -25.374  0.00  0.00    +0.059 C 
ATOM     16  C   UNL     1      32.265  -9.719 -21.287  0.00  0.00    +0.237 C 
ATOM     17  C   UNL     1      31.197  -4.500 -24.754  0.00  0.00    +0.000 C 
ATOM     18  C   UNL     1      32.067  -8.275 -19.210  0.00  0.00    +0.005 C 
ATOM     19  C   UNL     1      35.528  -9.608 -25.432  0.00  0.00    +0.064 C 
ENDROOT
BRANCH  16  20
ATOM     20  O   UNL     1      30.850  -9.825 -21.380  0.00  0.00    -0.328 OA
ATOM     21  C   UNL     1      30.411 -11.157 -21.148  0.00  0.00    +0.177 C 
ENDBRANCH  16  20
TORSDOF 1
ENDMDL
MODEL 6
REMARK VINA RESULT:      -5.8     11.802     14.524
REMARK  Name = 68911
REMARK  1 active torsions:
REMARK  status: ('A' for Active; 'I' for Inactive)
REMARK    1  A    between atoms: C_16  and  O_20
REMARK                            x       y       z     vdW  Elec       q    Type
REMARK                         _______ _______ _______ _____ _____    ______ ____
ROOT
ATOM      1  O   UNL     1      31.642 -13.935 -24.070  0.00  0.00    -0.218 OA
ATOM      2  O   UNL     1      34.223 -12.823 -24.802  0.00  0.00    -0.306 OA
ATOM      3  O   UNL     1      32.800 -11.219 -23.893  0.00  0.00    -0.304 OA
ATOM      4  O   UNL     1      32.006 -13.398 -25.378  0.00  0.00    -0.197 OA
ATOM      5  C   UNL     1      32.628 -13.546 -23.077  0.00  0.00    +0.178 C 
ATOM      6  C   UNL     1      33.386 -14.874 -22.751  0.00  0.00    +0.033 C 
ATOM      7  C   UNL     1      31.808 -13.046 -21.854  0.00  0.00    +0.038 C 
ATOM      8  C   UNL     1      34.199 -14.794 -21.433  0.00  0.00    +0.003 C 
ATOM      9  C   UNL     1      33.542 -12.412 -23.608  0.00  0.00    +0.268 C 
ATOM     10  C   UNL     1      32.651 -12.998 -20.569  0.00  0.00    +0.003 C 
ATOM     11  C   UNL     1      31.115 -11.700 -22.198  0.00  0.00    +0.059 C 
ATOM     12  C   UNL     1      34.272 -15.387 -23.910  0.00  0.00    +0.008 C 
ATOM     13  C   UNL     1      33.305 -14.339 -20.276  0.00  0.00    +0.000 C 
ATOM     14  C   UNL     1      33.392 -13.672 -25.599  0.00  0.00    +0.221 C 
ATOM     15  C   UNL     1      33.734 -15.148 -25.325  0.00  0.00    +0.059 C 
ATOM     16  C   UNL     1      32.094 -10.670 -22.784  0.00  0.00    +0.237 C 
ATOM     17  C   UNL     1      34.855 -16.129 -21.057  0.00  0.00    +0.000 C 
ATOM     18  C   UNL     1      30.312 -11.119 -21.033  0.00  0.00    +0.005 C 
ATOM     19  C   UNL     1      33.665 -13.329 -27.062  0.00  0.00    +0.064 C 
ENDROOT
BRANCH  16  20
ATOM     20  O   UNL     1      32.972 -10.148 -21.794  0.00  0.00    -0.328 OA
ATOM     21  C   UNL     1      32.886  -8.731 -21.717  0.00  0.00    +0.177 C 
ENDBRANCH  16  20
TORSDOF 1
ENDMDL
MODEL 7
REMARK VINA RESULT:      -5.7     18.533     20.910
REMARK  Name = 68911
REMARK  1 active torsions:
REMARK  status: ('A' for Active; 'I' for Inactive)
REMARK    1  A    between atoms: C_16  and  O_20
REMARK                            x       y       z     vdW  Elec       q    Type
REMARK                         _______ _______ _______ _____ _____    ______ ____
ROOT
ATOM      1  O   UNL     1      30.764  -5.576 -25.255  0.00  0.00    -0.218 OA
ATOM      2  O   UNL     1      31.971  -3.377 -23.791  0.00  0.00    -0.306 OA
ATOM      3  O   UNL     1      31.282  -5.099 -22.382  0.00  0.00    -0.304 OA
ATOM      4  O   UNL     1      30.069  -4.395 -24.752  0.00  0.00    -0.197 OA
ATOM      5  C   UNL     1      32.080  -5.679 -24.649  0.00  0.00    +0.178 C 
ATOM      6  C   UNL     1      33.064  -5.334 -25.813  0.00  0.00    +0.033 C 
ATOM      7  C   UNL     1      32.218  -7.164 -24.209  0.00  0.00    +0.038 C 
ATOM      8  C   UNL     1      34.522  -5.775 -25.518  0.00  0.00    +0.003 C 
ATOM      9  C   UNL     1      32.205  -4.743 -23.419  0.00  0.00    +0.268 C 
ATOM     10  C   UNL     1      33.680  -7.558 -23.943  0.00  0.00    +0.003 C 
ATOM     11  C   UNL     1      31.265  -7.452 -23.017  0.00  0.00    +0.059 C 
ATOM     12  C   UNL     1      33.019  -3.852 -26.250  0.00  0.00    +0.008 C 
ATOM     13  C   UNL     1      34.569  -7.258 -25.139  0.00  0.00    +0.000 C 
ATOM     14  C   UNL     1      30.974  -3.288 -24.812  0.00  0.00    +0.221 C 
ATOM     15  C   UNL     1      31.646  -3.175 -26.193  0.00  0.00    +0.059 C 
ATOM     16  C   UNL     1      31.419  -6.426 -21.884  0.00  0.00    +0.237 C 
ATOM     17  C   UNL     1      35.466  -5.535 -26.703  0.00  0.00    +0.000 C 
ATOM     18  C   UNL     1      31.364  -8.888 -22.499  0.00  0.00    +0.005 C 
ATOM     19  C   UNL     1      30.141  -2.041 -24.526  0.00  0.00    +0.064 C 
ENDROOT
BRANCH  16  20
ATOM     20  O   UNL     1      32.632  -6.606 -21.164  0.00  0.00    -0.328 OA
ATOM     21  C   UNL     1      32.391  -7.085 -19.847  0.00  0.00    +0.177 C 
ENDBRANCH  16  20
TORSDOF 1
ENDMDL
MODEL 8
REMARK VINA RESULT:      -5.7     12.640     15.183
REMARK  Name = 68911
REMARK  1 active torsions:
REMARK  status: ('A' for Active; 'I' for Inactive)
REMARK    1  A    between atoms: C_16  and  O_20
REMARK                            x       y       z     vdW  Elec       q    Type
REMARK                         _______ _______ _______ _____ _____    ______ ____
ROOT
ATOM      1  O   UNL     1      30.988 -11.064 -22.831  0.00  0.00    -0.218 OA
ATOM      2  O   UNL     1      32.641 -11.110 -20.443  0.00  0.00    -0.306 OA
ATOM      3  O   UNL     1      32.598 -13.173 -21.523  0.00  0.00    -0.304 OA
ATOM      4  O   UNL     1      30.531 -11.355 -21.475  0.00  0.00    -0.197 OA
ATOM      5  C   UNL     1      32.439 -11.122 -22.893  0.00  0.00    +0.178 C 
ATOM      6  C   UNL     1      32.872  -9.630 -23.064  0.00  0.00    +0.033 C 
ATOM      7  C   UNL     1      32.765 -11.958 -24.163  0.00  0.00    +0.038 C 
ATOM      8  C   UNL     1      34.335  -9.483 -23.561  0.00  0.00    +0.003 C 
ATOM      9  C   UNL     1      33.027 -11.810 -21.635  0.00  0.00    +0.268 C 
ATOM     10  C   UNL     1      34.218 -11.768 -24.627  0.00  0.00    +0.003 C 
ATOM     11  C   UNL     1      32.369 -13.442 -23.935  0.00  0.00    +0.059 C 
ATOM     12  C   UNL     1      32.632  -8.763 -21.807  0.00  0.00    +0.008 C 
ATOM     13  C   UNL     1      34.553 -10.300 -24.838  0.00  0.00    +0.000 C 
ATOM     14  C   UNL     1      31.319 -10.580 -20.566  0.00  0.00    +0.221 C 
ATOM     15  C   UNL     1      31.384  -9.100 -20.985  0.00  0.00    +0.059 C 
ATOM     16  C   UNL     1      32.944 -14.005 -22.626  0.00  0.00    +0.237 C 
ATOM     17  C   UNL     1      34.725  -8.025 -23.833  0.00  0.00    +0.000 C 
ATOM     18  C   UNL     1      32.690 -14.343 -25.128  0.00  0.00    +0.005 C 
ATOM     19  C   UNL     1      30.647 -10.713 -19.201  0.00  0.00    +0.064 C 
ENDROOT
BRANCH  16  20
ATOM     20  O   UNL     1      34.347 -14.227 -22.712  0.00  0.00    -0.328 OA
ATOM     21  C   UNL     1      34.695 -15.537 -22.286  0.00  0.00    +0.177 C 
ENDBRANCH  16  20
TORSDOF 1
ENDMDL
MODEL 9
REMARK VINA RESULT:      -5.7      2.088      5.480
REMARK  Name = 68911
REMARK  1 active torsions:
REMARK  status: ('A' for Active; 'I' for Inactive)
REMARK    1  A    between atoms: C_16  and  O_20
REMARK                            x       y       z     vdW  Elec       q    Type
REMARK                         _______ _______ _______ _____ _____    ______ ____
ROOT
ATOM      1  O   UNL     1      36.720 -26.151 -14.761  0.00  0.00    -0.218 OA
ATOM      2  O   UNL     1      38.898 -24.299 -14.248  0.00  0.00    -0.306 OA
ATOM      3  O   UNL     1      37.588 -23.637 -16.056  0.00  0.00    -0.304 OA
ATOM      4  O   UNL     1      38.072 -26.241 -15.306  0.00  0.00    -0.197 OA
ATOM      5  C   UNL     1      36.499 -24.834 -14.187  0.00  0.00    +0.178 C 
ATOM      6  C   UNL     1      36.465 -25.091 -12.646  0.00  0.00    +0.033 C 
ATOM      7  C   UNL     1      35.111 -24.380 -14.718  0.00  0.00    +0.038 C 
ATOM      8  C   UNL     1      35.839 -23.913 -11.854  0.00  0.00    +0.003 C 
ATOM      9  C   UNL     1      37.597 -23.836 -14.636  0.00  0.00    +0.268 C 
ATOM     10  C   UNL     1      34.523 -23.222 -13.894  0.00  0.00    +0.003 C 
ATOM     11  C   UNL     1      35.199 -24.083 -16.240  0.00  0.00    +0.059 C 
ATOM     12  C   UNL     1      37.836 -25.484 -12.048  0.00  0.00    +0.008 C 
ATOM     13  C   UNL     1      34.457 -23.564 -12.414  0.00  0.00    +0.000 C 
ATOM     14  C   UNL     1      38.980 -25.724 -14.329  0.00  0.00    +0.221 C 
ATOM     15  C   UNL     1      38.738 -26.343 -12.940  0.00  0.00    +0.059 C 
ATOM     16  C   UNL     1      36.362 -23.141 -16.586  0.00  0.00    +0.237 C 
ATOM     17  C   UNL     1      35.706 -24.209 -10.355  0.00  0.00    +0.000 C 
ATOM     18  C   UNL     1      33.878 -23.595 -16.837  0.00  0.00    +0.005 C 
ATOM     19  C   UNL     1      40.381 -26.071 -14.825  0.00  0.00    +0.064 C 
ENDROOT
BRANCH  16  20
ATOM     20  O   UNL     1      36.103 -21.803 -16.179  0.00  0.00    -0.328 OA
ATOM     21  C   UNL     1      37.062 -20.900 -16.714  0.00  0.00    +0.177 C 
ENDBRANCH  16  20
TORSDOF 1
ENDMDL
