MODEL 1
REMARK VINA RESULT:      -8.9      0.000      0.000
REMARK  Name = 9818024
REMARK  3 active torsions:
REMARK  status: ('A' for Active; 'I' for Inactive)
REMARK    1  A    between atoms: C_8  and  O_20
REMARK    2  A    between atoms: C_10  and  O_22
REMARK    3  A    between atoms: C_19  and  O_24
REMARK                            x       y       z     vdW  Elec       q    Type
REMARK                         _______ _______ _______ _____ _____    ______ ____
ROOT
ATOM      1  C   UNL     1      35.666 -23.039 -15.024  0.00  0.00    +0.005 C 
ATOM      2  C   UNL     1      34.553 -24.009 -14.586  0.00  0.00    +0.025 C 
ATOM      3  C   UNL     1      35.741 -22.859 -16.550  0.00  0.00    +0.032 C 
ATOM      4  C   UNL     1      34.366 -22.346 -17.074  0.00  0.00    +0.006 C 
ATOM      5  C   UNL     1      34.370 -22.171 -18.646  0.00  0.00    +0.015 C 
ATOM      6  C   UNL     1      33.209 -23.415 -15.019  0.00  0.00    +0.002 C 
ATOM      7  C   UNL     1      33.167 -23.175 -16.537  0.00  0.00    +0.000 C 
ATOM      8  C   UNL     1      34.791 -24.000 -13.063  0.00  0.00    +0.110 C 
ATOM      9  C   UNL     1      36.891 -23.539 -14.264  0.00  0.00    +0.003 C 
ATOM     10  C   UNL     1      36.857 -21.868 -16.939  0.00  0.00    +0.132 C 
ATOM     11  C   UNL     1      36.325 -24.045 -12.925  0.00  0.00    +0.029 C 
ATOM     12  C   UNL     1      35.647 -21.459 -19.109  0.00  0.00    -0.044 C 
ATOM     13  C   UNL     1      33.132 -21.313 -19.044  0.00  0.00    +0.006 C 
ATOM     14  C   UNL     1      34.695 -25.446 -15.145  0.00  0.00    +0.002 C 
ATOM     15  C   UNL     1      36.732 -21.323 -18.327  0.00  0.00    -0.006 C 
ATOM     16  C   UNL     1      34.299 -23.539 -19.366  0.00  0.00    +0.004 C 
ATOM     17  C   UNL     1      35.657 -20.898 -20.513  0.00  0.00    +0.051 C 
ATOM     18  C   UNL     1      33.144 -20.818 -20.489  0.00  0.00    +0.030 C 
ATOM     19  C   UNL     1      34.423 -20.047 -20.796  0.00  0.00    +0.115 C 
ENDROOT
BRANCH   8  20
ATOM     20  O   UNL     1      34.173 -25.085 -12.400  0.00  0.00    -0.384 OA
ATOM     21  H   UNL     1      33.246 -24.864 -12.214  0.00  0.00    +0.210 HD
ENDBRANCH   8  20
BRANCH  10  22
ATOM     22  O   UNL     1      38.128 -22.508 -16.822  0.00  0.00    -0.380 OA
ATOM     23  H   UNL     1      38.399 -22.851 -17.688  0.00  0.00    +0.211 HD
ENDBRANCH  10  22
BRANCH  19  24
ATOM     24  O   UNL     1      34.404 -19.674 -22.170  0.00  0.00    -0.384 OA
ATOM     25  H   UNL     1      33.528 -19.860 -22.543  0.00  0.00    +0.210 HD
ENDBRANCH  19  24
TORSDOF 3
ENDMDL
MODEL 2
REMARK VINA RESULT:      -7.7      2.903      4.962
REMARK  Name = 9818024
REMARK  3 active torsions:
REMARK  status: ('A' for Active; 'I' for Inactive)
REMARK    1  A    between atoms: C_8  and  O_20
REMARK    2  A    between atoms: C_10  and  O_22
REMARK    3  A    between atoms: C_19  and  O_24
REMARK                            x       y       z     vdW  Elec       q    Type
REMARK                         _______ _______ _______ _____ _____    ______ ____
ROOT
ATOM      1  C   UNL     1      35.330 -23.097 -15.375  0.00  0.00    +0.005 C 
ATOM      2  C   UNL     1      35.858 -23.901 -14.172  0.00  0.00    +0.025 C 
ATOM      3  C   UNL     1      33.923 -23.532 -15.819  0.00  0.00    +0.032 C 
ATOM      4  C   UNL     1      32.938 -23.383 -14.621  0.00  0.00    +0.006 C 
ATOM      5  C   UNL     1      31.476 -23.846 -15.006  0.00  0.00    +0.015 C 
ATOM      6  C   UNL     1      34.928 -23.639 -12.983  0.00  0.00    +0.002 C 
ATOM      7  C   UNL     1      33.477 -24.026 -13.312  0.00  0.00    +0.000 C 
ATOM      8  C   UNL     1      37.257 -23.268 -14.037  0.00  0.00    +0.110 C 
ATOM      9  C   UNL     1      36.484 -23.153 -16.372  0.00  0.00    +0.003 C 
ATOM     10  C   UNL     1      33.431 -22.690 -17.013  0.00  0.00    +0.132 C 
ATOM     11  C   UNL     1      37.746 -23.130 -15.491  0.00  0.00    +0.029 C 
ATOM     12  C   UNL     1      31.068 -23.276 -16.369  0.00  0.00    -0.044 C 
ATOM     13  C   UNL     1      30.495 -23.321 -13.916  0.00  0.00    +0.006 C 
ATOM     14  C   UNL     1      35.976 -25.426 -14.419  0.00  0.00    +0.002 C 
ATOM     15  C   UNL     1      31.952 -22.752 -17.236  0.00  0.00    -0.006 C 
ATOM     16  C   UNL     1      31.376 -25.389 -15.085  0.00  0.00    +0.004 C 
ATOM     17  C   UNL     1      29.599 -23.319 -16.728  0.00  0.00    +0.051 C 
ATOM     18  C   UNL     1      29.017 -23.440 -14.285  0.00  0.00    +0.030 C 
ATOM     19  C   UNL     1      28.724 -22.754 -15.613  0.00  0.00    +0.115 C 
ENDROOT
BRANCH   8  20
ATOM     20  O   UNL     1      38.142 -24.048 -13.257  0.00  0.00    -0.384 OA
ATOM     21  H   UNL     1      39.050 -23.924 -13.578  0.00  0.00    +0.210 HD
ENDBRANCH   8  20
BRANCH  10  22
ATOM     22  O   UNL     1      34.082 -23.124 -18.207  0.00  0.00    -0.380 OA
ATOM     23  H   UNL     1      35.037 -22.968 -18.131  0.00  0.00    +0.211 HD
ENDBRANCH  10  22
BRANCH  19  24
ATOM     24  O   UNL     1      27.352 -22.959 -15.933  0.00  0.00    -0.384 OA
ATOM     25  H   UNL     1      27.243 -22.969 -16.897  0.00  0.00    +0.210 HD
ENDBRANCH  19  24
TORSDOF 3
ENDMDL
MODEL 3
REMARK VINA RESULT:      -7.5      2.985      5.935
REMARK  Name = 9818024
REMARK  3 active torsions:
REMARK  status: ('A' for Active; 'I' for Inactive)
REMARK    1  A    between atoms: C_8  and  O_20
REMARK    2  A    between atoms: C_10  and  O_22
REMARK    3  A    between atoms: C_19  and  O_24
REMARK                            x       y       z     vdW  Elec       q    Type
REMARK                         _______ _______ _______ _____ _____    ______ ____
ROOT
ATOM      1  C   UNL     1      32.678 -23.691 -15.894  0.00  0.00    +0.005 C 
ATOM      2  C   UNL     1      31.678 -23.828 -14.731  0.00  0.00    +0.025 C 
ATOM      3  C   UNL     1      34.113 -23.398 -15.423  0.00  0.00    +0.032 C 
ATOM      4  C   UNL     1      34.580 -24.535 -14.465  0.00  0.00    +0.006 C 
ATOM      5  C   UNL     1      36.041 -24.275 -13.919  0.00  0.00    +0.015 C 
ATOM      6  C   UNL     1      32.106 -25.026 -13.877  0.00  0.00    +0.002 C 
ATOM      7  C   UNL     1      33.542 -24.854 -13.354  0.00  0.00    +0.000 C 
ATOM      8  C   UNL     1      30.381 -24.051 -15.534  0.00  0.00    +0.110 C 
ATOM      9  C   UNL     1      31.985 -22.717 -16.844  0.00  0.00    +0.003 C 
ATOM     10  C   UNL     1      35.079 -23.286 -16.619  0.00  0.00    +0.132 C 
ATOM     11  C   UNL     1      30.489 -23.051 -16.702  0.00  0.00    +0.029 C 
ATOM     12  C   UNL     1      36.974 -23.838 -15.055  0.00  0.00    -0.044 C 
ATOM     13  C   UNL     1      36.574 -25.601 -13.299  0.00  0.00    +0.006 C 
ATOM     14  C   UNL     1      31.550 -22.568 -13.839  0.00  0.00    +0.002 C 
ATOM     15  C   UNL     1      36.524 -23.419 -16.251  0.00  0.00    -0.006 C 
ATOM     16  C   UNL     1      36.051 -23.164 -12.842  0.00  0.00    +0.004 C 
ATOM     17  C   UNL     1      38.462 -23.891 -14.789  0.00  0.00    +0.051 C 
ATOM     18  C   UNL     1      38.068 -25.595 -12.983  0.00  0.00    +0.030 C 
ATOM     19  C   UNL     1      38.891 -25.239 -14.215  0.00  0.00    +0.115 C 
ENDROOT
BRANCH   8  20
ATOM     20  O   UNL     1      29.213 -23.838 -14.767  0.00  0.00    -0.384 OA
ATOM     21  H   UNL     1      28.873 -22.945 -14.937  0.00  0.00    +0.210 HD
ENDBRANCH   8  20
BRANCH  10  22
ATOM     22  O   UNL     1      34.897 -22.025 -17.266  0.00  0.00    -0.380 OA
ATOM     23  H   UNL     1      33.967 -21.924 -17.522  0.00  0.00    +0.211 HD
ENDBRANCH  10  22
BRANCH  19  24
ATOM     24  O   UNL     1      40.263 -25.183 -13.840  0.00  0.00    -0.384 OA
ATOM     25  H   UNL     1      40.438 -24.346 -13.379  0.00  0.00    +0.210 HD
ENDBRANCH  19  24
TORSDOF 3
ENDMDL
MODEL 4
REMARK VINA RESULT:      -7.2      9.566     13.958
REMARK  Name = 9818024
REMARK  3 active torsions:
REMARK  status: ('A' for Active; 'I' for Inactive)
REMARK    1  A    between atoms: C_8  and  O_20
REMARK    2  A    between atoms: C_10  and  O_22
REMARK    3  A    between atoms: C_19  and  O_24
REMARK                            x       y       z     vdW  Elec       q    Type
REMARK                         _______ _______ _______ _____ _____    ______ ____
ROOT
ATOM      1  C   UNL     1      32.604  -9.218 -21.930  0.00  0.00    +0.005 C 
ATOM      2  C   UNL     1      32.874  -8.625 -23.326  0.00  0.00    +0.025 C 
ATOM      3  C   UNL     1      32.227 -10.709 -21.972  0.00  0.00    +0.032 C 
ATOM      4  C   UNL     1      33.372 -11.507 -22.664  0.00  0.00    +0.006 C 
ATOM      5  C   UNL     1      33.029 -13.048 -22.767  0.00  0.00    +0.015 C 
ATOM      6  C   UNL     1      34.078  -9.359 -23.927  0.00  0.00    +0.002 C 
ATOM      7  C   UNL     1      33.823 -10.874 -24.009  0.00  0.00    +0.000 C 
ATOM      8  C   UNL     1      33.155  -7.162 -22.931  0.00  0.00    +0.110 C 
ATOM      9  C   UNL     1      31.640  -8.216 -21.300  0.00  0.00    +0.003 C 
ATOM     10  C   UNL     1      31.983 -11.261 -20.553  0.00  0.00    +0.132 C 
ATOM     11  C   UNL     1      32.093  -6.854 -21.858  0.00  0.00    +0.029 C 
ATOM     12  C   UNL     1      32.467 -13.568 -21.438  0.00  0.00    -0.044 C 
ATOM     13  C   UNL     1      34.340 -13.818 -23.106  0.00  0.00    +0.006 C 
ATOM     14  C   UNL     1      31.673  -8.701 -24.301  0.00  0.00    +0.002 C 
ATOM     15  C   UNL     1      32.024 -12.755 -20.464  0.00  0.00    -0.006 C 
ATOM     16  C   UNL     1      31.975 -13.319 -23.868  0.00  0.00    +0.004 C 
ATOM     17  C   UNL     1      32.420 -15.067 -21.245  0.00  0.00    +0.051 C 
ATOM     18  C   UNL     1      34.237 -15.336 -22.963  0.00  0.00    +0.030 C 
ATOM     19  C   UNL     1      33.758 -15.726 -21.569  0.00  0.00    +0.115 C 
ENDROOT
BRANCH   8  20
ATOM     20  O   UNL     1      33.069  -6.269 -24.024  0.00  0.00    -0.384 OA
ATOM     21  H   UNL     1      33.963  -6.052 -24.334  0.00  0.00    +0.210 HD
ENDBRANCH   8  20
BRANCH  10  22
ATOM     22  O   UNL     1      30.709 -10.820 -20.080  0.00  0.00    -0.380 OA
ATOM     23  H   UNL     1      30.225 -11.572 -19.704  0.00  0.00    +0.211 HD
ENDBRANCH  10  22
BRANCH  19  24
ATOM     24  O   UNL     1      33.617 -17.142 -21.522  0.00  0.00    -0.384 OA
ATOM     25  H   UNL     1      34.492 -17.550 -21.423  0.00  0.00    +0.210 HD
ENDBRANCH  19  24
TORSDOF 3
ENDMDL
MODEL 5
REMARK VINA RESULT:      -7.2     16.040     20.517
REMARK  Name = 9818024
REMARK  3 active torsions:
REMARK  status: ('A' for Active; 'I' for Inactive)
REMARK    1  A    between atoms: C_8  and  O_20
REMARK    2  A    between atoms: C_10  and  O_22
REMARK    3  A    between atoms: C_19  and  O_24
REMARK                            x       y       z     vdW  Elec       q    Type
REMARK                         _______ _______ _______ _____ _____    ______ ____
ROOT
ATOM      1  C   UNL     1      32.755  -3.295 -26.254  0.00  0.00    +0.005 C 
ATOM      2  C   UNL     1      33.401  -4.029 -27.444  0.00  0.00    +0.025 C 
ATOM      3  C   UNL     1      32.066  -4.247 -25.262  0.00  0.00    +0.032 C 
ATOM      4  C   UNL     1      33.108  -5.279 -24.735  0.00  0.00    +0.006 C 
ATOM      5  C   UNL     1      32.451  -6.310 -23.731  0.00  0.00    +0.015 C 
ATOM      6  C   UNL     1      34.497  -4.949 -26.895  0.00  0.00    +0.002 C 
ATOM      7  C   UNL     1      33.927  -5.947 -25.873  0.00  0.00    +0.000 C 
ATOM      8  C   UNL     1      33.928  -2.816 -28.236  0.00  0.00    +0.110 C 
ATOM      9  C   UNL     1      31.944  -2.187 -26.920  0.00  0.00    +0.003 C 
ATOM     10  C   UNL     1      31.450  -3.470 -24.081  0.00  0.00    +0.132 C 
ATOM     11  C   UNL     1      32.786  -1.786 -28.145  0.00  0.00    +0.029 C 
ATOM     12  C   UNL     1      31.555  -5.586 -22.719  0.00  0.00    -0.044 C 
ATOM     13  C   UNL     1      33.594  -7.045 -22.969  0.00  0.00    +0.006 C 
ATOM     14  C   UNL     1      32.412  -4.850 -28.308  0.00  0.00    +0.002 C 
ATOM     15  C   UNL     1      31.137  -4.319 -22.888  0.00  0.00    -0.006 C 
ATOM     16  C   UNL     1      31.582  -7.350 -24.478  0.00  0.00    +0.004 C 
ATOM     17  C   UNL     1      31.137  -6.356 -21.487  0.00  0.00    +0.051 C 
ATOM     18  C   UNL     1      33.128  -7.866 -21.768  0.00  0.00    +0.030 C 
ATOM     19  C   UNL     1      32.328  -7.011 -20.793  0.00  0.00    +0.115 C 
ENDROOT
BRANCH   8  20
ATOM     20  O   UNL     1      34.246  -3.128 -29.578  0.00  0.00    -0.384 OA
ATOM     21  H   UNL     1      33.938  -2.413 -30.158  0.00  0.00    +0.210 HD
ENDBRANCH   8  20
BRANCH  10  22
ATOM     22  O   UNL     1      30.244  -2.832 -24.505  0.00  0.00    -0.380 OA
ATOM     23  H   UNL     1      29.491  -3.423 -24.345  0.00  0.00    +0.211 HD
ENDBRANCH  10  22
BRANCH  19  24
ATOM     24  O   UNL     1      31.865  -7.846 -19.737  0.00  0.00    -0.384 OA
ATOM     25  H   UNL     1      31.212  -8.473 -20.084  0.00  0.00    +0.210 HD
ENDBRANCH  19  24
TORSDOF 3
ENDMDL
MODEL 6
REMARK VINA RESULT:      -7.1      6.048      9.504
REMARK  Name = 9818024
REMARK  3 active torsions:
REMARK  status: ('A' for Active; 'I' for Inactive)
REMARK    1  A    between atoms: C_8  and  O_20
REMARK    2  A    between atoms: C_10  and  O_22
REMARK    3  A    between atoms: C_19  and  O_24
REMARK                            x       y       z     vdW  Elec       q    Type
REMARK                         _______ _______ _______ _____ _____    ______ ____
ROOT
ATOM      1  C   UNL     1      35.015 -18.014 -22.874  0.00  0.00    +0.005 C 
ATOM      2  C   UNL     1      34.798 -18.149 -21.355  0.00  0.00    +0.025 C 
ATOM      3  C   UNL     1      34.180 -16.886 -23.504  0.00  0.00    +0.032 C 
ATOM      4  C   UNL     1      34.531 -15.538 -22.805  0.00  0.00    +0.006 C 
ATOM      5  C   UNL     1      33.679 -14.340 -23.388  0.00  0.00    +0.015 C 
ATOM      6  C   UNL     1      35.260 -16.847 -20.693  0.00  0.00    +0.002 C 
ATOM      7  C   UNL     1      34.499 -15.635 -21.254  0.00  0.00    +0.000 C 
ATOM      8  C   UNL     1      35.706 -19.363 -21.075  0.00  0.00    +0.110 C 
ATOM      9  C   UNL     1      34.853 -19.444 -23.384  0.00  0.00    +0.003 C 
ATOM     10  C   UNL     1      34.443 -16.778 -25.019  0.00  0.00    +0.132 C 
ATOM     11  C   UNL     1      35.432 -20.315 -22.254  0.00  0.00    +0.029 C 
ATOM     12  C   UNL     1      33.651 -14.390 -24.920  0.00  0.00    -0.044 C 
ATOM     13  C   UNL     1      34.338 -13.004 -22.930  0.00  0.00    +0.006 C 
ATOM     14  C   UNL     1      33.339 -18.460 -20.939  0.00  0.00    +0.002 C 
ATOM     15  C   UNL     1      34.011 -15.478 -25.623  0.00  0.00    -0.006 C 
ATOM     16  C   UNL     1      32.216 -14.389 -22.883  0.00  0.00    +0.004 C 
ATOM     17  C   UNL     1      33.192 -13.145 -25.646  0.00  0.00    +0.051 C 
ATOM     18  C   UNL     1      33.804 -11.761 -23.638  0.00  0.00    +0.030 C 
ATOM     19  C   UNL     1      33.918 -11.897 -25.152  0.00  0.00    +0.115 C 
ENDROOT
BRANCH   8  20
ATOM     20  O   UNL     1      35.438 -19.978 -19.830  0.00  0.00    -0.384 OA
ATOM     21  H   UNL     1      36.184 -19.828 -19.228  0.00  0.00    +0.210 HD
ENDBRANCH   8  20
BRANCH  10  22
ATOM     22  O   UNL     1      33.765 -17.835 -25.700  0.00  0.00    -0.380 OA
ATOM     23  H   UNL     1      33.060 -17.464 -26.253  0.00  0.00    +0.211 HD
ENDBRANCH  10  22
BRANCH  19  24
ATOM     24  O   UNL     1      33.342 -10.741 -25.752  0.00  0.00    -0.384 OA
ATOM     25  H   UNL     1      32.422 -10.650 -25.460  0.00  0.00    +0.210 HD
ENDBRANCH  19  24
TORSDOF 3
ENDMDL
MODEL 7
REMARK VINA RESULT:      -6.7     13.153     16.382
REMARK  Name = 9818024
REMARK  3 active torsions:
REMARK  status: ('A' for Active; 'I' for Inactive)
REMARK    1  A    between atoms: C_8  and  O_20
REMARK    2  A    between atoms: C_10  and  O_22
REMARK    3  A    between atoms: C_19  and  O_24
REMARK                            x       y       z     vdW  Elec       q    Type
REMARK                         _______ _______ _______ _____ _____    ______ ____
ROOT
ATOM      1  C   UNL     1      31.610  -9.355 -20.938  0.00  0.00    +0.005 C 
ATOM      2  C   UNL     1      31.718 -10.511 -21.951  0.00  0.00    +0.025 C 
ATOM      3  C   UNL     1      32.119  -8.015 -21.496  0.00  0.00    +0.032 C 
ATOM      4  C   UNL     1      31.316  -7.658 -22.782  0.00  0.00    +0.006 C 
ATOM      5  C   UNL     1      31.817  -6.301 -23.424  0.00  0.00    +0.015 C 
ATOM      6  C   UNL     1      30.826 -10.174 -23.151  0.00  0.00    +0.002 C 
ATOM      7  C   UNL     1      31.234  -8.837 -23.791  0.00  0.00    +0.000 C 
ATOM      8  C   UNL     1      31.196 -11.667 -21.076  0.00  0.00    +0.110 C 
ATOM      9  C   UNL     1      32.241  -9.933 -19.674  0.00  0.00    +0.003 C 
ATOM     10  C   UNL     1      31.976  -6.888 -20.454  0.00  0.00    +0.132 C 
ATOM     11  C   UNL     1      31.852 -11.422 -19.703  0.00  0.00    +0.029 C 
ATOM     12  C   UNL     1      31.998  -5.226 -22.346  0.00  0.00    -0.044 C 
ATOM     13  C   UNL     1      30.747  -5.823 -24.451  0.00  0.00    +0.006 C 
ATOM     14  C   UNL     1      33.159 -10.808 -22.436  0.00  0.00    +0.002 C 
ATOM     15  C   UNL     1      32.048  -5.509 -21.033  0.00  0.00    -0.006 C 
ATOM     16  C   UNL     1      33.173  -6.485 -24.146  0.00  0.00    +0.004 C 
ATOM     17  C   UNL     1      32.124  -3.792 -22.811  0.00  0.00    +0.051 C 
ATOM     18  C   UNL     1      30.943  -4.392 -24.948  0.00  0.00    +0.030 C 
ATOM     19  C   UNL     1      31.014  -3.410 -23.785  0.00  0.00    +0.115 C 
ENDROOT
BRANCH   8  20
ATOM     20  O   UNL     1      31.523 -12.942 -21.593  0.00  0.00    -0.384 OA
ATOM     21  H   UNL     1      31.946 -13.473 -20.899  0.00  0.00    +0.210 HD
ENDBRANCH   8  20
BRANCH  10  22
ATOM     22  O   UNL     1      33.000  -7.014 -19.467  0.00  0.00    -0.380 OA
ATOM     23  H   UNL     1      33.157  -6.152 -19.051  0.00  0.00    +0.211 HD
ENDBRANCH  10  22
BRANCH  19  24
ATOM     24  O   UNL     1      31.266  -2.110 -24.309  0.00  0.00    -0.384 OA
ATOM     25  H   UNL     1      31.067  -2.101 -25.259  0.00  0.00    +0.210 HD
ENDBRANCH  19  24
TORSDOF 3
ENDMDL
MODEL 8
REMARK VINA RESULT:      -6.7     10.868     14.512
REMARK  Name = 9818024
REMARK  3 active torsions:
REMARK  status: ('A' for Active; 'I' for Inactive)
REMARK    1  A    between atoms: C_8  and  O_20
REMARK    2  A    between atoms: C_10  and  O_22
REMARK    3  A    between atoms: C_19  and  O_24
REMARK                            x       y       z     vdW  Elec       q    Type
REMARK                         _______ _______ _______ _____ _____    ______ ____
ROOT
ATOM      1  C   UNL     1      32.180 -12.102 -22.137  0.00  0.00    +0.005 C 
ATOM      2  C   UNL     1      33.040 -12.695 -23.268  0.00  0.00    +0.025 C 
ATOM      3  C   UNL     1      32.523 -10.635 -21.826  0.00  0.00    +0.032 C 
ATOM      4  C   UNL     1      32.345  -9.782 -23.118  0.00  0.00    +0.006 C 
ATOM      5  C   UNL     1      32.715  -8.264 -22.870  0.00  0.00    +0.015 C 
ATOM      6  C   UNL     1      32.753 -11.902 -24.548  0.00  0.00    +0.002 C 
ATOM      7  C   UNL     1      33.048 -10.406 -24.355  0.00  0.00    +0.000 C 
ATOM      8  C   UNL     1      32.492 -14.136 -23.276  0.00  0.00    +0.110 C 
ATOM      9  C   UNL     1      32.279 -13.149 -21.030  0.00  0.00    +0.003 C 
ATOM     10  C   UNL     1      31.626 -10.081 -20.701  0.00  0.00    +0.132 C 
ATOM     11  C   UNL     1      32.349 -14.489 -21.784  0.00  0.00    +0.029 C 
ATOM     12  C   UNL     1      32.090  -7.761 -21.563  0.00  0.00    -0.044 C 
ATOM     13  C   UNL     1      32.159  -7.426 -24.060  0.00  0.00    +0.006 C 
ATOM     14  C   UNL     1      34.563 -12.698 -22.984  0.00  0.00    +0.002 C 
ATOM     15  C   UNL     1      31.598  -8.586 -20.623  0.00  0.00    -0.006 C 
ATOM     16  C   UNL     1      34.246  -8.065 -22.773  0.00  0.00    +0.004 C 
ATOM     17  C   UNL     1      32.041  -6.264 -21.350  0.00  0.00    +0.051 C 
ATOM     18  C   UNL     1      32.185  -5.916 -23.836  0.00  0.00    +0.030 C 
ATOM     19  C   UNL     1      31.452  -5.536 -22.555  0.00  0.00    +0.115 C 
ENDROOT
BRANCH   8  20
ATOM     20  O   UNL     1      33.340 -15.045 -23.951  0.00  0.00    -0.384 OA
ATOM     21  H   UNL     1      32.817 -15.564 -24.584  0.00  0.00    +0.210 HD
ENDBRANCH   8  20
BRANCH  10  22
ATOM     22  O   UNL     1      32.070 -10.586 -19.441  0.00  0.00    -0.380 OA
ATOM     23  H   UNL     1      32.903 -10.155 -19.194  0.00  0.00    +0.211 HD
ENDBRANCH  10  22
BRANCH  19  24
ATOM     24  O   UNL     1      31.571  -4.130 -22.368  0.00  0.00    -0.384 OA
ATOM     25  H   UNL     1      31.557  -3.928 -21.419  0.00  0.00    +0.210 HD
ENDBRANCH  19  24
TORSDOF 3
ENDMDL
MODEL 9
REMARK VINA RESULT:      -6.6      8.397     12.026
REMARK  Name = 9818024
REMARK  3 active torsions:
REMARK  status: ('A' for Active; 'I' for Inactive)
REMARK    1  A    between atoms: C_8  and  O_20
REMARK    2  A    between atoms: C_10  and  O_22
REMARK    3  A    between atoms: C_19  and  O_24
REMARK                            x       y       z     vdW  Elec       q    Type
REMARK                         _______ _______ _______ _____ _____    ______ ____
ROOT
ATOM      1  C   UNL     1      34.173 -14.306 -22.635  0.00  0.00    +0.005 C 
ATOM      2  C   UNL     1      33.683 -15.263 -21.532  0.00  0.00    +0.025 C 
ATOM      3  C   UNL     1      33.229 -13.113 -22.860  0.00  0.00    +0.032 C 
ATOM      4  C   UNL     1      33.069 -12.329 -21.523  0.00  0.00    +0.006 C 
ATOM      5  C   UNL     1      32.081 -11.103 -21.681  0.00  0.00    +0.015 C 
ATOM      6  C   UNL     1      33.647 -14.485 -20.212  0.00  0.00    +0.002 C 
ATOM      7  C   UNL     1      32.738 -13.250 -20.317  0.00  0.00    +0.000 C 
ATOM      8  C   UNL     1      34.792 -16.332 -21.610  0.00  0.00    +0.110 C 
ATOM      9  C   UNL     1      34.493 -15.242 -23.798  0.00  0.00    +0.003 C 
ATOM     10  C   UNL     1      33.769 -12.177 -23.959  0.00  0.00    +0.132 C 
ATOM     11  C   UNL     1      35.025 -16.519 -23.121  0.00  0.00    +0.029 C 
ATOM     12  C   UNL     1      32.390 -10.320 -22.963  0.00  0.00    -0.044 C 
ATOM     13  C   UNL     1      32.265 -10.166 -20.450  0.00  0.00    +0.006 C 
ATOM     14  C   UNL     1      32.298 -15.902 -21.802  0.00  0.00    +0.002 C 
ATOM     15  C   UNL     1      33.155 -10.811 -23.953  0.00  0.00    -0.006 C 
ATOM     16  C   UNL     1      30.607 -11.572 -21.753  0.00  0.00    +0.004 C 
ATOM     17  C   UNL     1      31.791  -8.937 -23.091  0.00  0.00    +0.051 C 
ATOM     18  C   UNL     1      31.592  -8.802 -20.588  0.00  0.00    +0.030 C 
ATOM     19  C   UNL     1      32.052  -8.086 -21.852  0.00  0.00    +0.115 C 
ENDROOT
BRANCH   8  20
ATOM     20  O   UNL     1      34.434 -17.546 -20.980  0.00  0.00    -0.384 OA
ATOM     21  H   UNL     1      34.472 -17.433 -20.017  0.00  0.00    +0.210 HD
ENDBRANCH   8  20
BRANCH  10  22
ATOM     22  O   UNL     1      33.542 -12.763 -25.242  0.00  0.00    -0.380 OA
ATOM     23  H   UNL     1      34.370 -13.142 -25.575  0.00  0.00    +0.211 HD
ENDBRANCH  10  22
BRANCH  19  24
ATOM     24  O   UNL     1      31.340  -6.857 -21.958  0.00  0.00    -0.384 OA
ATOM     25  H   UNL     1      31.431  -6.359 -21.131  0.00  0.00    +0.210 HD
ENDBRANCH  19  24
TORSDOF 3
ENDMDL
