MODEL 1
REMARK VINA RESULT:      -8.6      0.000      0.000
REMARK  Name = 9927346
REMARK  8 active torsions:
REMARK  status: ('A' for Active; 'I' for Inactive)
REMARK    1  A    between atoms: C_2  and  O_16
REMARK    2  A    between atoms: C_3  and  C_27
REMARK    3  A    between atoms: C_5  and  N_7
REMARK    4  A    between atoms: O_16  and  C_18
REMARK    5  A    between atoms: C_18  and  C_19
REMARK    6  A    between atoms: C_19  and  N_20
REMARK    7  A    between atoms: C_19  and  C_24
REMARK    8  A    between atoms: C_27  and  O_28
REMARK                            x       y       z     vdW  Elec       q    Type
REMARK                         _______ _______ _______ _____ _____    ______ ____
ROOT
ATOM      1  O   UNL     1      35.017 -24.540 -15.755  0.00  0.00    -0.333 OA
ATOM      2  C   UNL     1      33.309 -23.960 -14.213  0.00  0.00    +0.202 C 
ATOM      3  C   UNL     1      34.701 -24.564 -14.349  0.00  0.00    +0.186 C 
ATOM      4  C   UNL     1      33.241 -23.003 -15.380  0.00  0.00    +0.098 C 
ATOM      5  C   UNL     1      34.047 -23.736 -16.440  0.00  0.00    +0.210 C 
ENDROOT
BRANCH   5   7
ATOM      6  O   UNL     1      32.953 -22.727 -18.830  0.00  0.00    -0.193 OA
ATOM      7  N   UNL     1      34.717 -22.851 -17.348  0.00  0.00    -0.180 N 
ATOM      8  N   UNL     1      34.807 -21.530 -19.363  0.00  0.00    -0.306 NA
ATOM      9  N   UNL     1      36.710 -20.307 -19.903  0.00  0.00    -0.332 N 
ATOM     10  C   UNL     1      36.007 -22.446 -17.047  0.00  0.00    +0.083 C 
ATOM     11  C   UNL     1      34.099 -22.384 -18.534  0.00  0.00    +0.275 C 
ATOM     12  C   UNL     1      36.705 -21.627 -17.831  0.00  0.00    +0.065 C 
ATOM     13  C   UNL     1      36.024 -21.156 -19.066  0.00  0.00    +0.193 C 
ATOM     14  H   UNL     1      36.284 -19.980 -20.728  0.00  0.00    +0.145 HD
ATOM     15  H   UNL     1      37.626 -20.028 -19.678  0.00  0.00    +0.145 HD
ENDBRANCH   5   7
BRANCH   2  16
ATOM     16  O   UNL     1      32.327 -24.975 -14.403  0.00  0.00    -0.451 OA
BRANCH  16  18
ATOM     17  O   UNL     1      30.844 -24.233 -12.804  0.00  0.00    -0.252 OA
ATOM     18  C   UNL     1      31.082 -24.692 -13.913  0.00  0.00    +0.296 C 
BRANCH  18  19
ATOM     19  C   UNL     1      30.038 -25.035 -14.965  0.00  0.00    +0.036 C 
BRANCH  19  20
ATOM     20  N   UNL     1      28.843 -25.536 -14.282  0.00  0.00    +0.389 N 
ATOM     21  H   UNL     1      29.000 -25.531 -13.275  0.00  0.00    -0.088 HD
ATOM     22  H   UNL     1      28.648 -26.487 -14.593  0.00  0.00    -0.088 HD
ATOM     23  H   UNL     1      28.048 -24.936 -14.506  0.00  0.00    -0.088 HD
ENDBRANCH  19  20
BRANCH  19  24
ATOM     24  C   UNL     1      29.742 -23.836 -15.896  0.00  0.00    -0.010 C 
ATOM     25  C   UNL     1      29.589 -22.537 -15.097  0.00  0.00    -0.002 C 
ATOM     26  C   UNL     1      28.514 -24.041 -16.790  0.00  0.00    -0.002 C 
ENDBRANCH  19  24
ENDBRANCH  18  19
ENDBRANCH  16  18
ENDBRANCH   2  16
BRANCH   3  27
ATOM     27  C   UNL     1      35.768 -23.763 -13.615  0.00  0.00    +0.170 C 
BRANCH  27  28
ATOM     28  O   UNL     1      35.248 -23.341 -12.365  0.00  0.00    -0.379 OA
ATOM     29  H   UNL     1      35.840 -22.680 -11.975  0.00  0.00    +0.211 HD
ENDBRANCH  27  28
ENDBRANCH   3  27
TORSDOF 8
ENDMDL
MODEL 2
REMARK VINA RESULT:      -8.6      9.615     13.352
REMARK  Name = 9927346
REMARK  8 active torsions:
REMARK  status: ('A' for Active; 'I' for Inactive)
REMARK    1  A    between atoms: C_2  and  O_16
REMARK    2  A    between atoms: C_3  and  C_27
REMARK    3  A    between atoms: C_5  and  N_7
REMARK    4  A    between atoms: O_16  and  C_18
REMARK    5  A    between atoms: C_18  and  C_19
REMARK    6  A    between atoms: C_19  and  N_20
REMARK    7  A    between atoms: C_19  and  C_24
REMARK    8  A    between atoms: C_27  and  O_28
REMARK                            x       y       z     vdW  Elec       q    Type
REMARK                         _______ _______ _______ _____ _____    ______ ____
ROOT
ATOM      1  O   UNL     1      34.617 -14.366 -24.083  0.00  0.00    -0.333 OA
ATOM      2  C   UNL     1      32.704 -13.092 -23.495  0.00  0.00    +0.202 C 
ATOM      3  C   UNL     1      33.538 -13.606 -24.661  0.00  0.00    +0.186 C 
ATOM      4  C   UNL     1      32.913 -14.151 -22.438  0.00  0.00    +0.098 C 
ATOM      5  C   UNL     1      34.353 -14.571 -22.688  0.00  0.00    +0.210 C 
ENDROOT
BRANCH   5   7
ATOM      6  O   UNL     1      34.891 -15.534 -20.098  0.00  0.00    -0.193 OA
ATOM      7  N   UNL     1      34.605 -15.941 -22.351  0.00  0.00    -0.180 N 
ATOM      8  N   UNL     1      35.102 -17.691 -20.769  0.00  0.00    -0.306 NA
ATOM      9  N   UNL     1      35.317 -19.901 -21.463  0.00  0.00    -0.332 N 
ATOM     10  C   UNL     1      34.588 -16.886 -23.364  0.00  0.00    +0.083 C 
ATOM     11  C   UNL     1      34.868 -16.350 -21.021  0.00  0.00    +0.275 C 
ATOM     12  C   UNL     1      34.811 -18.181 -23.143  0.00  0.00    +0.065 C 
ATOM     13  C   UNL     1      35.082 -18.573 -21.734  0.00  0.00    +0.193 C 
ATOM     14  H   UNL     1      35.500 -20.189 -20.540  0.00  0.00    +0.145 HD
ATOM     15  H   UNL     1      35.303 -20.562 -22.192  0.00  0.00    +0.145 HD
ENDBRANCH   5   7
BRANCH   2  16
ATOM     16  O   UNL     1      33.251 -11.865 -23.020  0.00  0.00    -0.451 OA
BRANCH  16  18
ATOM     17  O   UNL     1      31.389 -10.739 -22.263  0.00  0.00    -0.252 OA
ATOM     18  C   UNL     1      32.383 -10.810 -22.974  0.00  0.00    +0.296 C 
BRANCH  18  19
ATOM     19  C   UNL     1      32.848  -9.733 -23.943  0.00  0.00    +0.036 C 
BRANCH  19  20
ATOM     20  N   UNL     1      32.072  -8.518 -23.690  0.00  0.00    +0.389 N 
ATOM     21  H   UNL     1      31.437  -8.677 -22.908  0.00  0.00    -0.088 HD
ATOM     22  H   UNL     1      31.535  -8.278 -24.523  0.00  0.00    -0.088 HD
ATOM     23  H   UNL     1      32.707  -7.751 -23.463  0.00  0.00    -0.088 HD
ENDBRANCH  19  20
BRANCH  19  24
ATOM     24  C   UNL     1      34.376  -9.502 -23.859  0.00  0.00    -0.010 C 
ATOM     25  C   UNL     1      34.700  -8.027 -23.600  0.00  0.00    -0.002 C 
ATOM     26  C   UNL     1      35.140  -9.991 -25.094  0.00  0.00    -0.002 C 
ENDBRANCH  19  24
ENDBRANCH  18  19
ENDBRANCH  16  18
ENDBRANCH   2  16
BRANCH   3  27
ATOM     27  C   UNL     1      32.758 -14.530 -25.586  0.00  0.00    +0.170 C 
BRANCH  27  28
ATOM     28  O   UNL     1      33.674 -15.257 -26.388  0.00  0.00    -0.379 OA
ATOM     29  H   UNL     1      33.308 -15.368 -27.279  0.00  0.00    +0.211 HD
ENDBRANCH  27  28
ENDBRANCH   3  27
TORSDOF 8
ENDMDL
MODEL 3
REMARK VINA RESULT:      -8.5      6.276     10.198
REMARK  Name = 9927346
REMARK  8 active torsions:
REMARK  status: ('A' for Active; 'I' for Inactive)
REMARK    1  A    between atoms: C_2  and  O_16
REMARK    2  A    between atoms: C_3  and  C_27
REMARK    3  A    between atoms: C_5  and  N_7
REMARK    4  A    between atoms: O_16  and  C_18
REMARK    5  A    between atoms: C_18  and  C_19
REMARK    6  A    between atoms: C_19  and  N_20
REMARK    7  A    between atoms: C_19  and  C_24
REMARK    8  A    between atoms: C_27  and  O_28
REMARK                            x       y       z     vdW  Elec       q    Type
REMARK                         _______ _______ _______ _____ _____    ______ ____
ROOT
ATOM      1  O   UNL     1      35.822 -18.767 -22.476  0.00  0.00    -0.333 OA
ATOM      2  C   UNL     1      34.409 -16.907 -22.894  0.00  0.00    +0.202 C 
ATOM      3  C   UNL     1      35.304 -17.953 -23.546  0.00  0.00    +0.186 C 
ATOM      4  C   UNL     1      33.910 -17.615 -21.656  0.00  0.00    +0.098 C 
ATOM      5  C   UNL     1      35.110 -18.463 -21.268  0.00  0.00    +0.210 C 
ENDROOT
BRANCH   5   7
ATOM      6  O   UNL     1      36.893 -20.185 -19.934  0.00  0.00    -0.193 OA
ATOM      7  N   UNL     1      34.746 -19.684 -20.610  0.00  0.00    -0.180 N 
ATOM      8  N   UNL     1      35.277 -21.664 -19.342  0.00  0.00    -0.306 NA
ATOM      9  N   UNL     1      33.616 -23.176 -18.739  0.00  0.00    -0.332 N 
ATOM     10  C   UNL     1      33.415 -20.068 -20.618  0.00  0.00    +0.083 C 
ATOM     11  C   UNL     1      35.702 -20.499 -19.957  0.00  0.00    +0.275 C 
ATOM     12  C   UNL     1      32.986 -21.185 -20.032  0.00  0.00    +0.065 C 
ATOM     13  C   UNL     1      34.018 -22.014 -19.356  0.00  0.00    +0.193 C 
ATOM     14  H   UNL     1      34.278 -23.745 -18.284  0.00  0.00    +0.145 HD
ATOM     15  H   UNL     1      32.667 -23.437 -18.752  0.00  0.00    +0.145 HD
ENDBRANCH   5   7
BRANCH   2  16
ATOM     16  O   UNL     1      35.197 -15.790 -22.489  0.00  0.00    -0.451 OA
BRANCH  16  18
ATOM     17  O   UNL     1      34.864 -14.468 -20.632  0.00  0.00    -0.252 OA
ATOM     18  C   UNL     1      34.543 -14.842 -21.753  0.00  0.00    +0.296 C 
BRANCH  18  19
ATOM     19  C   UNL     1      33.353 -14.321 -22.545  0.00  0.00    +0.036 C 
BRANCH  19  20
ATOM     20  N   UNL     1      32.539 -13.487 -21.660  0.00  0.00    +0.389 N 
ATOM     21  H   UNL     1      32.561 -12.521 -21.989  0.00  0.00    -0.088 HD
ATOM     22  H   UNL     1      32.911 -13.533 -20.712  0.00  0.00    -0.088 HD
ATOM     23  H   UNL     1      31.576 -13.826 -21.664  0.00  0.00    -0.088 HD
ENDBRANCH  19  20
BRANCH  19  24
ATOM     24  C   UNL     1      33.796 -13.584 -23.831  0.00  0.00    -0.010 C 
ATOM     25  C   UNL     1      33.524 -12.079 -23.729  0.00  0.00    -0.002 C 
ATOM     26  C   UNL     1      33.157 -14.140 -25.108  0.00  0.00    -0.002 C 
ENDBRANCH  19  24
ENDBRANCH  18  19
ENDBRANCH  16  18
ENDBRANCH   2  16
BRANCH   3  27
ATOM     27  C   UNL     1      34.548 -18.866 -24.504  0.00  0.00    +0.170 C 
BRANCH  27  28
ATOM     28  O   UNL     1      33.918 -18.070 -25.494  0.00  0.00    -0.379 OA
ATOM     29  H   UNL     1      34.573 -17.793 -26.153  0.00  0.00    +0.211 HD
ENDBRANCH  27  28
ENDBRANCH   3  27
TORSDOF 8
ENDMDL
MODEL 4
REMARK VINA RESULT:      -8.3      9.529     12.933
REMARK  Name = 9927346
REMARK  8 active torsions:
REMARK  status: ('A' for Active; 'I' for Inactive)
REMARK    1  A    between atoms: C_2  and  O_16
REMARK    2  A    between atoms: C_3  and  C_27
REMARK    3  A    between atoms: C_5  and  N_7
REMARK    4  A    between atoms: O_16  and  C_18
REMARK    5  A    between atoms: C_18  and  C_19
REMARK    6  A    between atoms: C_19  and  N_20
REMARK    7  A    between atoms: C_19  and  C_24
REMARK    8  A    between atoms: C_27  and  O_28
REMARK                            x       y       z     vdW  Elec       q    Type
REMARK                         _______ _______ _______ _____ _____    ______ ____
ROOT
ATOM      1  O   UNL     1      34.486 -14.210 -23.952  0.00  0.00    -0.333 OA
ATOM      2  C   UNL     1      32.451 -13.120 -23.401  0.00  0.00    +0.202 C 
ATOM      3  C   UNL     1      33.372 -13.516 -24.549  0.00  0.00    +0.186 C 
ATOM      4  C   UNL     1      32.703 -14.202 -22.378  0.00  0.00    +0.098 C 
ATOM      5  C   UNL     1      34.181 -14.493 -22.580  0.00  0.00    +0.210 C 
ENDROOT
BRANCH   5   7
ATOM      6  O   UNL     1      34.857 -15.479 -20.031  0.00  0.00    -0.193 OA
ATOM      7  N   UNL     1      34.531 -15.852 -22.284  0.00  0.00    -0.180 N 
ATOM      8  N   UNL     1      35.187 -17.603 -20.762  0.00  0.00    -0.306 NA
ATOM      9  N   UNL     1      35.524 -19.776 -21.517  0.00  0.00    -0.332 N 
ATOM     10  C   UNL     1      34.546 -16.772 -23.320  0.00  0.00    +0.083 C 
ATOM     11  C   UNL     1      34.860 -16.274 -20.973  0.00  0.00    +0.275 C 
ATOM     12  C   UNL     1      34.858 -18.054 -23.138  0.00  0.00    +0.065 C 
ATOM     13  C   UNL     1      35.196 -18.461 -21.748  0.00  0.00    +0.193 C 
ATOM     14  H   UNL     1      35.753 -20.073 -20.607  0.00  0.00    +0.145 HD
ATOM     15  H   UNL     1      35.531 -20.419 -22.262  0.00  0.00    +0.145 HD
ENDBRANCH   5   7
BRANCH   2  16
ATOM     16  O   UNL     1      32.875 -11.874 -22.856  0.00  0.00    -0.451 OA
BRANCH  16  18
ATOM     17  O   UNL     1      30.744 -11.422 -22.106  0.00  0.00    -0.252 OA
ATOM     18  C   UNL     1      31.877 -11.061 -22.395  0.00  0.00    +0.296 C 
BRANCH  18  19
ATOM     19  C   UNL     1      32.397  -9.635 -22.293  0.00  0.00    +0.036 C 
BRANCH  19  20
ATOM     20  N   UNL     1      31.967  -8.901 -23.485  0.00  0.00    +0.389 N 
ATOM     21  H   UNL     1      32.660  -9.017 -24.224  0.00  0.00    -0.088 HD
ATOM     22  H   UNL     1      31.872  -7.911 -23.259  0.00  0.00    -0.088 HD
ATOM     23  H   UNL     1      31.068  -9.265 -23.802  0.00  0.00    -0.088 HD
ENDBRANCH  19  20
BRANCH  19  24
ATOM     24  C   UNL     1      31.958  -8.954 -20.975  0.00  0.00    -0.010 C 
ATOM     25  C   UNL     1      32.708  -7.636 -20.755  0.00  0.00    -0.002 C 
ATOM     26  C   UNL     1      32.115  -9.850 -19.741  0.00  0.00    -0.002 C 
ENDBRANCH  19  24
ENDBRANCH  18  19
ENDBRANCH  16  18
ENDBRANCH   2  16
BRANCH   3  27
ATOM     27  C   UNL     1      32.710 -14.460 -25.542  0.00  0.00    +0.170 C 
BRANCH  27  28
ATOM     28  O   UNL     1      33.716 -15.075 -26.331  0.00  0.00    -0.379 OA
ATOM     29  H   UNL     1      33.302 -15.573 -27.053  0.00  0.00    +0.211 HD
ENDBRANCH  27  28
ENDBRANCH   3  27
TORSDOF 8
ENDMDL
MODEL 5
REMARK VINA RESULT:      -8.2      9.002     12.337
REMARK  Name = 9927346
REMARK  8 active torsions:
REMARK  status: ('A' for Active; 'I' for Inactive)
REMARK    1  A    between atoms: C_2  and  O_16
REMARK    2  A    between atoms: C_3  and  C_27
REMARK    3  A    between atoms: C_5  and  N_7
REMARK    4  A    between atoms: O_16  and  C_18
REMARK    5  A    between atoms: C_18  and  C_19
REMARK    6  A    between atoms: C_19  and  N_20
REMARK    7  A    between atoms: C_19  and  C_24
REMARK    8  A    between atoms: C_27  and  O_28
REMARK                            x       y       z     vdW  Elec       q    Type
REMARK                         _______ _______ _______ _____ _____    ______ ____
ROOT
ATOM      1  O   UNL     1      32.340 -14.184 -23.851  0.00  0.00    -0.333 OA
ATOM      2  C   UNL     1      34.278 -15.346 -23.127  0.00  0.00    +0.202 C 
ATOM      3  C   UNL     1      33.251 -15.229 -24.246  0.00  0.00    +0.186 C 
ATOM      4  C   UNL     1      34.327 -13.945 -22.565  0.00  0.00    +0.098 C 
ATOM      5  C   UNL     1      32.885 -13.489 -22.721  0.00  0.00    +0.210 C 
ENDROOT
BRANCH   5   7
ATOM      6  O   UNL     1      31.073 -11.806 -21.377  0.00  0.00    -0.193 OA
ATOM      7  N   UNL     1      32.762 -12.076 -22.925  0.00  0.00    -0.180 N 
ATOM      8  N   UNL     1      31.762  -9.932 -22.457  0.00  0.00    -0.306 NA
ATOM      9  N   UNL     1      32.473  -8.017 -23.568  0.00  0.00    -0.332 N 
ATOM     10  C   UNL     1      33.590 -11.466 -23.853  0.00  0.00    +0.083 C 
ATOM     11  C   UNL     1      31.824 -11.293 -22.208  0.00  0.00    +0.275 C 
ATOM     12  C   UNL     1      33.546 -10.160 -24.108  0.00  0.00    +0.065 C 
ATOM     13  C   UNL     1      32.550  -9.370 -23.336  0.00  0.00    +0.193 C 
ATOM     14  H   UNL     1      31.822  -7.469 -23.072  0.00  0.00    +0.145 HD
ATOM     15  H   UNL     1      33.067  -7.596 -24.231  0.00  0.00    +0.145 HD
ENDBRANCH   5   7
BRANCH   2  16
ATOM     16  O   UNL     1      33.786 -16.222 -22.116  0.00  0.00    -0.451 OA
BRANCH  16  18
ATOM     17  O   UNL     1      35.258 -16.766 -20.430  0.00  0.00    -0.252 OA
ATOM     18  C   UNL     1      34.724 -17.006 -21.505  0.00  0.00    +0.296 C 
BRANCH  18  19
ATOM     19  C   UNL     1      35.001 -18.226 -22.370  0.00  0.00    +0.036 C 
BRANCH  19  20
ATOM     20  N   UNL     1      36.398 -18.176 -22.806  0.00  0.00    +0.389 N 
ATOM     21  H   UNL     1      36.469 -17.617 -23.656  0.00  0.00    -0.088 HD
ATOM     22  H   UNL     1      36.730 -19.122 -22.990  0.00  0.00    -0.088 HD
ATOM     23  H   UNL     1      36.968 -17.753 -22.072  0.00  0.00    -0.088 HD
ENDBRANCH  19  20
BRANCH  19  24
ATOM     24  C   UNL     1      34.644 -19.543 -21.639  0.00  0.00    -0.010 C 
ATOM     25  C   UNL     1      33.306 -19.422 -20.901  0.00  0.00    -0.002 C 
ATOM     26  C   UNL     1      35.730 -20.019 -20.668  0.00  0.00    -0.002 C 
ENDBRANCH  19  24
ENDBRANCH  18  19
ENDBRANCH  16  18
ENDBRANCH   2  16
BRANCH   3  27
ATOM     27  C   UNL     1      33.870 -14.831 -25.579  0.00  0.00    +0.170 C 
BRANCH  27  28
ATOM     28  O   UNL     1      33.396 -15.712 -26.585  0.00  0.00    -0.379 OA
ATOM     29  H   UNL     1      32.438 -15.826 -26.491  0.00  0.00    +0.211 HD
ENDBRANCH  27  28
ENDBRANCH   3  27
TORSDOF 8
ENDMDL
MODEL 6
REMARK VINA RESULT:      -8.2      2.798      4.496
REMARK  Name = 9927346
REMARK  8 active torsions:
REMARK  status: ('A' for Active; 'I' for Inactive)
REMARK    1  A    between atoms: C_2  and  O_16
REMARK    2  A    between atoms: C_3  and  C_27
REMARK    3  A    between atoms: C_5  and  N_7
REMARK    4  A    between atoms: O_16  and  C_18
REMARK    5  A    between atoms: C_18  and  C_19
REMARK    6  A    between atoms: C_19  and  N_20
REMARK    7  A    between atoms: C_19  and  C_24
REMARK    8  A    between atoms: C_27  and  O_28
REMARK                            x       y       z     vdW  Elec       q    Type
REMARK                         _______ _______ _______ _____ _____    ______ ____
ROOT
ATOM      1  O   UNL     1      35.063 -22.867 -14.640  0.00  0.00    -0.333 OA
ATOM      2  C   UNL     1      32.990 -24.021 -14.671  0.00  0.00    +0.202 C 
ATOM      3  C   UNL     1      33.847 -22.995 -15.402  0.00  0.00    +0.186 C 
ATOM      4  C   UNL     1      34.018 -24.907 -14.008  0.00  0.00    +0.098 C 
ATOM      5  C   UNL     1      35.119 -23.917 -13.665  0.00  0.00    +0.210 C 
ENDROOT
BRANCH   5   7
ATOM      6  O   UNL     1      36.224 -25.447 -11.577  0.00  0.00    -0.193 OA
ATOM      7  N   UNL     1      36.426 -24.506 -13.673  0.00  0.00    -0.180 N 
ATOM      8  N   UNL     1      38.186 -25.805 -12.659  0.00  0.00    -0.306 NA
ATOM      9  N   UNL     1      40.195 -26.167 -13.774  0.00  0.00    -0.332 N 
ATOM     10  C   UNL     1      37.230 -24.320 -14.786  0.00  0.00    +0.083 C 
ATOM     11  C   UNL     1      36.914 -25.265 -12.581  0.00  0.00    +0.275 C 
ATOM     12  C   UNL     1      38.457 -24.830 -14.880  0.00  0.00    +0.065 C 
ATOM     13  C   UNL     1      38.933 -25.622 -13.716  0.00  0.00    +0.193 C 
ATOM     14  H   UNL     1      40.537 -26.696 -13.017  0.00  0.00    +0.145 HD
ATOM     15  H   UNL     1      40.756 -26.027 -14.570  0.00  0.00    +0.145 HD
ENDBRANCH   5   7
BRANCH   2  16
ATOM     16  O   UNL     1      32.230 -23.372 -13.655  0.00  0.00    -0.451 OA
BRANCH  16  18
ATOM     17  O   UNL     1      30.479 -24.034 -12.312  0.00  0.00    -0.252 OA
ATOM     18  C   UNL     1      30.992 -23.900 -13.415  0.00  0.00    +0.296 C 
BRANCH  18  19
ATOM     19  C   UNL     1      30.349 -24.294 -14.736  0.00  0.00    +0.036 C 
BRANCH  19  20
ATOM     20  N   UNL     1      29.436 -25.412 -14.490  0.00  0.00    +0.389 N 
ATOM     21  H   UNL     1      28.624 -25.329 -15.102  0.00  0.00    -0.088 HD
ATOM     22  H   UNL     1      29.132 -25.394 -13.516  0.00  0.00    -0.088 HD
ATOM     23  H   UNL     1      29.917 -26.292 -14.680  0.00  0.00    -0.088 HD
ENDBRANCH  19  20
BRANCH  19  24
ATOM     24  C   UNL     1      29.659 -23.092 -15.423  0.00  0.00    -0.010 C 
ATOM     25  C   UNL     1      28.197 -23.407 -15.756  0.00  0.00    -0.002 C 
ATOM     26  C   UNL     1      30.384 -22.606 -16.683  0.00  0.00    -0.002 C 
ENDBRANCH  19  24
ENDBRANCH  18  19
ENDBRANCH  16  18
ENDBRANCH   2  16
BRANCH   3  27
ATOM     27  C   UNL     1      34.221 -23.432 -16.812  0.00  0.00    +0.170 C 
BRANCH  27  28
ATOM     28  O   UNL     1      35.358 -22.697 -17.233  0.00  0.00    -0.379 OA
ATOM     29  H   UNL     1      35.454 -21.904 -16.682  0.00  0.00    +0.211 HD
ENDBRANCH  27  28
ENDBRANCH   3  27
TORSDOF 8
ENDMDL
MODEL 7
REMARK VINA RESULT:      -8.1      9.369     12.664
REMARK  Name = 9927346
REMARK  8 active torsions:
REMARK  status: ('A' for Active; 'I' for Inactive)
REMARK    1  A    between atoms: C_2  and  O_16
REMARK    2  A    between atoms: C_3  and  C_27
REMARK    3  A    between atoms: C_5  and  N_7
REMARK    4  A    between atoms: O_16  and  C_18
REMARK    5  A    between atoms: C_18  and  C_19
REMARK    6  A    between atoms: C_19  and  N_20
REMARK    7  A    between atoms: C_19  and  C_24
REMARK    8  A    between atoms: C_27  and  O_28
REMARK                            x       y       z     vdW  Elec       q    Type
REMARK                         _______ _______ _______ _____ _____    ______ ____
ROOT
ATOM      1  O   UNL     1      34.555 -14.158 -23.829  0.00  0.00    -0.333 OA
ATOM      2  C   UNL     1      32.570 -13.017 -23.204  0.00  0.00    +0.202 C 
ATOM      3  C   UNL     1      33.464 -13.394 -24.379  0.00  0.00    +0.186 C 
ATOM      4  C   UNL     1      32.790 -14.155 -22.236  0.00  0.00    +0.098 C 
ATOM      5  C   UNL     1      34.253 -14.493 -22.467  0.00  0.00    +0.210 C 
ENDROOT
BRANCH   5   7
ATOM      6  O   UNL     1      34.893 -15.628 -19.972  0.00  0.00    -0.193 OA
ATOM      7  N   UNL     1      34.552 -15.877 -22.239  0.00  0.00    -0.180 N 
ATOM      8  N   UNL     1      35.144 -17.723 -20.806  0.00  0.00    -0.306 NA
ATOM      9  N   UNL     1      35.399 -19.868 -21.668  0.00  0.00    -0.332 N 
ATOM     10  C   UNL     1      34.532 -16.745 -23.319  0.00  0.00    +0.083 C 
ATOM     11  C   UNL     1      34.866 -16.375 -20.951  0.00  0.00    +0.275 C 
ATOM     12  C   UNL     1      34.797 -18.045 -23.201  0.00  0.00    +0.065 C 
ATOM     13  C   UNL     1      35.120 -18.531 -21.834  0.00  0.00    +0.193 C 
ATOM     14  H   UNL     1      35.617 -20.218 -20.774  0.00  0.00    +0.145 HD
ATOM     15  H   UNL     1      35.382 -20.474 -22.444  0.00  0.00    +0.145 HD
ENDBRANCH   5   7
BRANCH   2  16
ATOM     16  O   UNL     1      33.048 -11.815 -22.606  0.00  0.00    -0.451 OA
BRANCH  16  18
ATOM     17  O   UNL     1      32.521 -10.008 -23.935  0.00  0.00    -0.252 OA
ATOM     18  C   UNL     1      32.355 -10.681 -22.926  0.00  0.00    +0.296 C 
BRANCH  18  19
ATOM     19  C   UNL     1      31.341 -10.386 -21.831  0.00  0.00    +0.036 C 
BRANCH  19  20
ATOM     20  N   UNL     1      30.394 -11.500 -21.766  0.00  0.00    +0.389 N 
ATOM     21  H   UNL     1      30.534 -12.112 -22.570  0.00  0.00    -0.088 HD
ATOM     22  H   UNL     1      29.441 -11.138 -21.775  0.00  0.00    -0.088 HD
ATOM     23  H   UNL     1      30.550 -12.028 -20.906  0.00  0.00    -0.088 HD
ENDBRANCH  19  20
BRANCH  19  24
ATOM     24  C   UNL     1      32.026 -10.095 -20.475  0.00  0.00    -0.010 C 
ATOM     25  C   UNL     1      31.223 -10.686 -19.311  0.00  0.00    -0.002 C 
ATOM     26  C   UNL     1      32.281  -8.605 -20.223  0.00  0.00    -0.002 C 
ENDBRANCH  19  24
ENDBRANCH  18  19
ENDBRANCH  16  18
ENDBRANCH   2  16
BRANCH   3  27
ATOM     27  C   UNL     1      32.756 -14.264 -25.408  0.00  0.00    +0.170 C 
BRANCH  27  28
ATOM     28  O   UNL     1      33.728 -14.864 -26.249  0.00  0.00    -0.379 OA
ATOM     29  H   UNL     1      33.358 -14.985 -27.137  0.00  0.00    +0.211 HD
ENDBRANCH  27  28
ENDBRANCH   3  27
TORSDOF 8
ENDMDL
MODEL 8
REMARK VINA RESULT:      -8.0      6.832      9.896
REMARK  Name = 9927346
REMARK  8 active torsions:
REMARK  status: ('A' for Active; 'I' for Inactive)
REMARK    1  A    between atoms: C_2  and  O_16
REMARK    2  A    between atoms: C_3  and  C_27
REMARK    3  A    between atoms: C_5  and  N_7
REMARK    4  A    between atoms: O_16  and  C_18
REMARK    5  A    between atoms: C_18  and  C_19
REMARK    6  A    between atoms: C_19  and  N_20
REMARK    7  A    between atoms: C_19  and  C_24
REMARK    8  A    between atoms: C_27  and  O_28
REMARK                            x       y       z     vdW  Elec       q    Type
REMARK                         _______ _______ _______ _____ _____    ______ ____
ROOT
ATOM      1  O   UNL     1      35.159 -15.378 -22.125  0.00  0.00    -0.333 OA
ATOM      2  C   UNL     1      34.093 -17.184 -21.015  0.00  0.00    +0.202 C 
ATOM      3  C   UNL     1      34.681 -15.791 -20.829  0.00  0.00    +0.186 C 
ATOM      4  C   UNL     1      33.621 -17.161 -22.450  0.00  0.00    +0.098 C 
ATOM      5  C   UNL     1      34.672 -16.290 -23.118  0.00  0.00    +0.210 C 
ENDROOT
BRANCH   5   7
ATOM      6  O   UNL     1      34.345 -17.304 -25.724  0.00  0.00    -0.193 OA
ATOM      7  N   UNL     1      34.161 -15.552 -24.236  0.00  0.00    -0.180 N 
ATOM      8  N   UNL     1      33.524 -15.358 -26.553  0.00  0.00    -0.306 NA
ATOM      9  N   UNL     1      32.683 -13.360 -27.395  0.00  0.00    -0.332 N 
ATOM     10  C   UNL     1      33.793 -14.230 -24.043  0.00  0.00    +0.083 C 
ATOM     11  C   UNL     1      34.025 -16.132 -25.520  0.00  0.00    +0.275 C 
ATOM     12  C   UNL     1      33.309 -13.468 -25.023  0.00  0.00    +0.065 C 
ATOM     13  C   UNL     1      33.179 -14.112 -26.356  0.00  0.00    +0.193 C 
ATOM     14  H   UNL     1      32.586 -13.760 -28.290  0.00  0.00    +0.145 HD
ATOM     15  H   UNL     1      32.425 -12.422 -27.245  0.00  0.00    +0.145 HD
ENDBRANCH   5   7
BRANCH   2  16
ATOM     16  O   UNL     1      35.125 -18.159 -20.893  0.00  0.00    -0.451 OA
BRANCH  16  18
ATOM     17  O   UNL     1      35.067 -19.853 -22.453  0.00  0.00    -0.252 OA
ATOM     18  C   UNL     1      34.810 -19.411 -21.341  0.00  0.00    +0.296 C 
BRANCH  18  19
ATOM     19  C   UNL     1      34.090 -20.173 -20.239  0.00  0.00    +0.036 C 
BRANCH  19  20
ATOM     20  N   UNL     1      32.712 -20.417 -20.670  0.00  0.00    +0.389 N 
ATOM     21  H   UNL     1      32.631 -20.233 -21.670  0.00  0.00    -0.088 HD
ATOM     22  H   UNL     1      32.081 -19.802 -20.158  0.00  0.00    -0.088 HD
ATOM     23  H   UNL     1      32.465 -21.390 -20.483  0.00  0.00    -0.088 HD
ENDBRANCH  19  20
BRANCH  19  24
ATOM     24  C   UNL     1      34.839 -21.470 -19.852  0.00  0.00    -0.010 C 
ATOM     25  C   UNL     1      34.036 -22.293 -18.838  0.00  0.00    -0.002 C 
ATOM     26  C   UNL     1      36.254 -21.224 -19.314  0.00  0.00    -0.002 C 
ENDBRANCH  19  24
ENDBRANCH  18  19
ENDBRANCH  16  18
ENDBRANCH   2  16
BRANCH   3  27
ATOM     27  C   UNL     1      33.653 -14.769 -20.362  0.00  0.00    +0.170 C 
BRANCH  27  28
ATOM     28  O   UNL     1      32.430 -15.437 -20.101  0.00  0.00    -0.379 OA
ATOM     29  H   UNL     1      32.608 -16.364 -19.876  0.00  0.00    +0.211 HD
ENDBRANCH  27  28
ENDBRANCH   3  27
TORSDOF 8
ENDMDL
MODEL 9
REMARK VINA RESULT:      -7.7     10.697     14.068
REMARK  Name = 9927346
REMARK  8 active torsions:
REMARK  status: ('A' for Active; 'I' for Inactive)
REMARK    1  A    between atoms: C_2  and  O_16
REMARK    2  A    between atoms: C_3  and  C_27
REMARK    3  A    between atoms: C_5  and  N_7
REMARK    4  A    between atoms: O_16  and  C_18
REMARK    5  A    between atoms: C_18  and  C_19
REMARK    6  A    between atoms: C_19  and  N_20
REMARK    7  A    between atoms: C_19  and  C_24
REMARK    8  A    between atoms: C_27  and  O_28
REMARK                            x       y       z     vdW  Elec       q    Type
REMARK                         _______ _______ _______ _____ _____    ______ ____
ROOT
ATOM      1  O   UNL     1      32.081 -13.972 -23.496  0.00  0.00    -0.333 OA
ATOM      2  C   UNL     1      33.403 -12.083 -22.934  0.00  0.00    +0.202 C 
ATOM      3  C   UNL     1      32.171 -12.891 -22.546  0.00  0.00    +0.186 C 
ATOM      4  C   UNL     1      34.300 -13.119 -23.569  0.00  0.00    +0.098 C 
ATOM      5  C   UNL     1      33.296 -14.032 -24.255  0.00  0.00    +0.210 C 
ENDROOT
BRANCH   5   7
ATOM      6  O   UNL     1      33.318 -15.594 -26.597  0.00  0.00    -0.193 OA
ATOM      7  N   UNL     1      33.740 -15.393 -24.338  0.00  0.00    -0.180 N 
ATOM      8  N   UNL     1      34.166 -17.427 -25.561  0.00  0.00    -0.306 NA
ATOM      9  N   UNL     1      35.034 -19.301 -24.492  0.00  0.00    -0.332 N 
ATOM     10  C   UNL     1      34.198 -16.011 -23.186  0.00  0.00    +0.083 C 
ATOM     11  C   UNL     1      33.721 -16.116 -25.556  0.00  0.00    +0.275 C 
ATOM     12  C   UNL     1      34.629 -17.271 -23.169  0.00  0.00    +0.065 C 
ATOM     13  C   UNL     1      34.597 -17.997 -24.466  0.00  0.00    +0.193 C 
ATOM     14  H   UNL     1      35.023 -19.806 -25.337  0.00  0.00    +0.145 HD
ATOM     15  H   UNL     1      35.357 -19.728 -23.667  0.00  0.00    +0.145 HD
ENDBRANCH   5   7
BRANCH   2  16
ATOM     16  O   UNL     1      33.051 -11.121 -23.924  0.00  0.00    -0.451 OA
BRANCH  16  18
ATOM     17  O   UNL     1      34.960  -9.831 -23.923  0.00  0.00    -0.252 OA
ATOM     18  C   UNL     1      33.742  -9.942 -23.874  0.00  0.00    +0.296 C 
BRANCH  18  19
ATOM     19  C   UNL     1      32.760  -8.788 -23.752  0.00  0.00    +0.036 C 
BRANCH  19  20
ATOM     20  N   UNL     1      31.697  -9.182 -22.825  0.00  0.00    +0.389 N 
ATOM     21  H   UNL     1      31.585 -10.195 -22.848  0.00  0.00    -0.088 HD
ATOM     22  H   UNL     1      30.823  -8.736 -23.101  0.00  0.00    -0.088 HD
ATOM     23  H   UNL     1      31.945  -8.888 -21.880  0.00  0.00    -0.088 HD
ENDBRANCH  19  20
BRANCH  19  24
ATOM     24  C   UNL     1      33.464  -7.473 -23.338  0.00  0.00    -0.010 C 
ATOM     25  C   UNL     1      32.559  -6.615 -22.448  0.00  0.00    -0.002 C 
ATOM     26  C   UNL     1      33.959  -6.642 -24.527  0.00  0.00    -0.002 C 
ENDBRANCH  19  24
ENDBRANCH  18  19
ENDBRANCH  16  18
ENDBRANCH   2  16
BRANCH   3  27
ATOM     27  C   UNL     1      32.274 -13.499 -21.154  0.00  0.00    +0.170 C 
BRANCH  27  28
ATOM     28  O   UNL     1      31.964 -12.502 -20.194  0.00  0.00    -0.379 OA
ATOM     29  H   UNL     1      31.131 -12.069 -20.435  0.00  0.00    +0.211 HD
ENDBRANCH  27  28
ENDBRANCH   3  27
TORSDOF 8
ENDMDL
