MODEL 1
REMARK VINA RESULT:      -8.3      0.000      0.000
REMARK  Name = 60773
REMARK  9 active torsions:
REMARK  status: ('A' for Active; 'I' for Inactive)
REMARK    1  A    between atoms: C_1  and  N_3
REMARK    2  A    between atoms: C_1  and  O_16
REMARK    3  A    between atoms: O_16  and  C_17
REMARK    4  A    between atoms: C_17  and  C_18
REMARK    5  A    between atoms: C_18  and  O_19
REMARK    6  A    between atoms: O_19  and  C_21
REMARK    7  A    between atoms: C_21  and  C_22
REMARK    8  A    between atoms: C_22  and  N_23
REMARK    9  A    between atoms: C_22  and  C_27
REMARK                            x       y       z     vdW  Elec       q    Type
REMARK                         _______ _______ _______ _____ _____    ______ ____
ROOT
ATOM      1  C   UNL     1      34.837 -16.943 -25.259  0.00  0.00    +0.223 C 
ENDROOT
BRANCH   1   3
ATOM      2  O   UNL     1      31.937 -12.458 -22.678  0.00  0.00    -0.208 OA
ATOM      3  N   UNL     1      34.042 -15.787 -24.868  0.00  0.00    -0.206 NA
ATOM      4  N   UNL     1      34.392 -15.685 -22.466  0.00  0.00    -0.279 N 
ATOM      5  N   UNL     1      32.688 -14.024 -25.060  0.00  0.00    -0.241 NA
ATOM      6  N   UNL     1      33.232 -13.881 -21.386  0.00  0.00    -0.301 NA
ATOM      7  N   UNL     1      34.579 -15.394 -20.181  0.00  0.00    -0.320 N 
ATOM      8  C   UNL     1      33.882 -15.281 -23.633  0.00  0.00    +0.191 C 
ATOM      9  C   UNL     1      33.053 -14.204 -23.756  0.00  0.00    +0.183 C 
ATOM     10  C   UNL     1      33.304 -14.999 -25.709  0.00  0.00    +0.205 C 
ATOM     11  C   UNL     1      32.680 -13.429 -22.590  0.00  0.00    +0.224 C 
ATOM     12  C   UNL     1      34.028 -14.934 -21.350  0.00  0.00    +0.245 C 
ATOM     13  H   UNL     1      34.989 -16.465 -22.400  0.00  0.00    +0.152 HD
ATOM     14  H   UNL     1      35.168 -16.183 -20.191  0.00  0.00    +0.146 HD
ATOM     15  H   UNL     1      34.385 -14.936 -19.332  0.00  0.00    +0.146 HD
ENDBRANCH   1   3
BRANCH   1  16
ATOM     16  O   UNL     1      33.956 -18.053 -25.359  0.00  0.00    -0.333 OA
BRANCH  16  17
ATOM     17  C   UNL     1      34.522 -19.219 -24.774  0.00  0.00    +0.191 C 
BRANCH  17  18
ATOM     18  C   UNL     1      35.147 -18.851 -23.443  0.00  0.00    +0.240 C 
BRANCH  18  19
ATOM     19  O   UNL     1      34.588 -19.682 -22.419  0.00  0.00    -0.447 OA
BRANCH  19  21
ATOM     20  O   UNL     1      35.290 -18.180 -20.819  0.00  0.00    -0.252 OA
ATOM     21  C   UNL     1      34.714 -19.211 -21.142  0.00  0.00    +0.296 C 
BRANCH  21  22
ATOM     22  C   UNL     1      34.024 -20.168 -20.182  0.00  0.00    +0.036 C 
BRANCH  22  23
ATOM     23  N   UNL     1      32.683 -20.451 -20.696  0.00  0.00    +0.389 N 
ATOM     24  H   UNL     1      31.994 -20.265 -19.968  0.00  0.00    -0.088 HD
ATOM     25  H   UNL     1      32.626 -21.429 -20.977  0.00  0.00    -0.088 HD
ATOM     26  H   UNL     1      32.496 -19.854 -21.502  0.00  0.00    -0.088 HD
ENDBRANCH  22  23
BRANCH  22  27
ATOM     27  C   UNL     1      34.861 -21.447 -19.944  0.00  0.00    -0.010 C 
ATOM     28  C   UNL     1      34.125 -22.429 -19.029  0.00  0.00    -0.002 C 
ATOM     29  C   UNL     1      36.262 -21.170 -19.386  0.00  0.00    -0.002 C 
ENDBRANCH  22  27
ENDBRANCH  21  22
ENDBRANCH  19  21
ENDBRANCH  18  19
ENDBRANCH  17  18
ENDBRANCH  16  17
ENDBRANCH   1  16
TORSDOF 9
ENDMDL
MODEL 2
REMARK VINA RESULT:      -8.3      1.705      3.306
REMARK  Name = 60773
REMARK  9 active torsions:
REMARK  status: ('A' for Active; 'I' for Inactive)
REMARK    1  A    between atoms: C_1  and  N_3
REMARK    2  A    between atoms: C_1  and  O_16
REMARK    3  A    between atoms: O_16  and  C_17
REMARK    4  A    between atoms: C_17  and  C_18
REMARK    5  A    between atoms: C_18  and  O_19
REMARK    6  A    between atoms: O_19  and  C_21
REMARK    7  A    between atoms: C_21  and  C_22
REMARK    8  A    between atoms: C_22  and  N_23
REMARK    9  A    between atoms: C_22  and  C_27
REMARK                            x       y       z     vdW  Elec       q    Type
REMARK                         _______ _______ _______ _____ _____    ______ ____
ROOT
ATOM      1  C   UNL     1      33.367 -14.143 -21.350  0.00  0.00    +0.223 C 
ENDROOT
BRANCH   1   3
ATOM      2  O   UNL     1      33.340 -13.604 -27.258  0.00  0.00    -0.208 OA
ATOM      3  N   UNL     1      33.301 -13.760 -22.754  0.00  0.00    -0.206 NA
ATOM      4  N   UNL     1      33.807 -15.841 -23.901  0.00  0.00    -0.279 N 
ATOM      5  N   UNL     1      33.029 -12.470 -24.554  0.00  0.00    -0.241 NA
ATOM      6  N   UNL     1      33.805 -15.661 -26.296  0.00  0.00    -0.301 NA
ATOM      7  N   UNL     1      34.263 -17.697 -25.200  0.00  0.00    -0.320 N 
ATOM      8  C   UNL     1      33.502 -14.542 -23.829  0.00  0.00    +0.191 C 
ATOM      9  C   UNL     1      33.335 -13.749 -24.926  0.00  0.00    +0.183 C 
ATOM     10  C   UNL     1      33.015 -12.510 -23.232  0.00  0.00    +0.205 C 
ATOM     11  C   UNL     1      33.486 -14.299 -26.259  0.00  0.00    +0.224 C 
ATOM     12  C   UNL     1      33.949 -16.361 -25.186  0.00  0.00    +0.245 C 
ATOM     13  H   UNL     1      33.922 -16.395 -23.096  0.00  0.00    +0.152 HD
ATOM     14  H   UNL     1      34.363 -18.188 -24.353  0.00  0.00    +0.146 HD
ATOM     15  H   UNL     1      34.388 -18.164 -26.057  0.00  0.00    +0.146 HD
ENDBRANCH   1   3
BRANCH   1  16
ATOM     16  O   UNL     1      34.644 -14.724 -21.127  0.00  0.00    -0.333 OA
BRANCH  16  17
ATOM     17  C   UNL     1      34.546 -15.908 -20.344  0.00  0.00    +0.191 C 
BRANCH  17  18
ATOM     18  C   UNL     1      35.172 -17.058 -21.107  0.00  0.00    +0.240 C 
BRANCH  18  19
ATOM     19  O   UNL     1      34.137 -17.802 -21.762  0.00  0.00    -0.447 OA
BRANCH  19  21
ATOM     20  O   UNL     1      34.785 -19.664 -22.956  0.00  0.00    -0.252 OA
ATOM     21  C   UNL     1      34.384 -19.137 -21.927  0.00  0.00    +0.296 C 
BRANCH  21  22
ATOM     22  C   UNL     1      34.084 -19.867 -20.626  0.00  0.00    +0.036 C 
BRANCH  22  23
ATOM     23  N   UNL     1      32.709 -20.366 -20.683  0.00  0.00    +0.389 N 
ATOM     24  H   UNL     1      32.578 -21.085 -19.972  0.00  0.00    -0.088 HD
ATOM     25  H   UNL     1      32.529 -20.763 -21.605  0.00  0.00    -0.088 HD
ATOM     26  H   UNL     1      32.062 -19.596 -20.513  0.00  0.00    -0.088 HD
ENDBRANCH  22  23
BRANCH  22  27
ATOM     27  C   UNL     1      35.118 -20.981 -20.341  0.00  0.00    -0.010 C 
ATOM     28  C   UNL     1      34.619 -21.936 -19.252  0.00  0.00    -0.002 C 
ATOM     29  C   UNL     1      36.507 -20.450 -19.967  0.00  0.00    -0.002 C 
ENDBRANCH  22  27
ENDBRANCH  21  22
ENDBRANCH  19  21
ENDBRANCH  18  19
ENDBRANCH  17  18
ENDBRANCH  16  17
ENDBRANCH   1  16
TORSDOF 9
ENDMDL
MODEL 3
REMARK VINA RESULT:      -8.2      6.280     10.944
REMARK  Name = 60773
REMARK  9 active torsions:
REMARK  status: ('A' for Active; 'I' for Inactive)
REMARK    1  A    between atoms: C_1  and  N_3
REMARK    2  A    between atoms: C_1  and  O_16
REMARK    3  A    between atoms: O_16  and  C_17
REMARK    4  A    between atoms: C_17  and  C_18
REMARK    5  A    between atoms: C_18  and  O_19
REMARK    6  A    between atoms: O_19  and  C_21
REMARK    7  A    between atoms: C_21  and  C_22
REMARK    8  A    between atoms: C_22  and  N_23
REMARK    9  A    between atoms: C_22  and  C_27
REMARK                            x       y       z     vdW  Elec       q    Type
REMARK                         _______ _______ _______ _____ _____    ______ ____
ROOT
ATOM      1  C   UNL     1      37.182 -22.439 -16.447  0.00  0.00    +0.223 C 
ENDROOT
BRANCH   1   3
ATOM      2  O   UNL     1      36.666 -26.093 -11.802  0.00  0.00    -0.208 OA
ATOM      3  N   UNL     1      36.824 -23.218 -15.270  0.00  0.00    -0.206 NA
ATOM      4  N   UNL     1      38.740 -24.686 -14.996  0.00  0.00    -0.279 N 
ATOM      5  N   UNL     1      35.628 -23.942 -13.530  0.00  0.00    -0.241 NA
ATOM      6  N   UNL     1      38.567 -26.181 -13.125  0.00  0.00    -0.301 NA
ATOM      7  N   UNL     1      40.450 -26.175 -14.543  0.00  0.00    -0.320 N 
ATOM      8  C   UNL     1      37.542 -24.189 -14.678  0.00  0.00    +0.191 C 
ATOM      9  C   UNL     1      36.806 -24.628 -13.616  0.00  0.00    +0.183 C 
ATOM     10  C   UNL     1      35.669 -23.095 -14.546  0.00  0.00    +0.205 C 
ATOM     11  C   UNL     1      37.310 -25.685 -12.761  0.00  0.00    +0.224 C 
ATOM     12  C   UNL     1      39.217 -25.702 -14.169  0.00  0.00    +0.245 C 
ATOM     13  H   UNL     1      39.255 -24.355 -15.767  0.00  0.00    +0.152 HD
ATOM     14  H   UNL     1      40.905 -25.794 -15.329  0.00  0.00    +0.146 HD
ATOM     15  H   UNL     1      40.877 -26.895 -14.027  0.00  0.00    +0.146 HD
ENDBRANCH   1   3
BRANCH   1  16
ATOM     16  O   UNL     1      36.050 -22.419 -17.305  0.00  0.00    -0.333 OA
BRANCH  16  17
ATOM     17  C   UNL     1      36.291 -21.629 -18.463  0.00  0.00    +0.191 C 
BRANCH  17  18
ATOM     18  C   UNL     1      35.239 -21.949 -19.507  0.00  0.00    +0.240 C 
BRANCH  18  19
ATOM     19  O   UNL     1      35.363 -21.025 -20.594  0.00  0.00    -0.447 OA
BRANCH  19  21
ATOM     20  O   UNL     1      33.182 -20.284 -20.525  0.00  0.00    -0.252 OA
ATOM     21  C   UNL     1      34.379 -20.080 -20.680  0.00  0.00    +0.296 C 
BRANCH  21  22
ATOM     22  C   UNL     1      35.005 -18.730 -20.996  0.00  0.00    +0.036 C 
BRANCH  22  23
ATOM     23  N   UNL     1      36.456 -18.847 -20.845  0.00  0.00    +0.389 N 
ATOM     24  H   UNL     1      36.709 -19.829 -20.736  0.00  0.00    -0.088 HD
ATOM     25  H   UNL     1      36.755 -18.326 -20.020  0.00  0.00    -0.088 HD
ATOM     26  H   UNL     1      36.916 -18.466 -21.672  0.00  0.00    -0.088 HD
ENDBRANCH  22  23
BRANCH  22  27
ATOM     27  C   UNL     1      34.584 -18.214 -22.392  0.00  0.00    -0.010 C 
ATOM     28  C   UNL     1      34.892 -19.246 -23.482  0.00  0.00    -0.002 C 
ATOM     29  C   UNL     1      35.213 -16.866 -22.765  0.00  0.00    -0.002 C 
ENDBRANCH  22  27
ENDBRANCH  21  22
ENDBRANCH  19  21
ENDBRANCH  18  19
ENDBRANCH  17  18
ENDBRANCH  16  17
ENDBRANCH   1  16
TORSDOF 9
ENDMDL
MODEL 4
REMARK VINA RESULT:      -8.1      2.702      7.723
REMARK  Name = 60773
REMARK  9 active torsions:
REMARK  status: ('A' for Active; 'I' for Inactive)
REMARK    1  A    between atoms: C_1  and  N_3
REMARK    2  A    between atoms: C_1  and  O_16
REMARK    3  A    between atoms: O_16  and  C_17
REMARK    4  A    between atoms: C_17  and  C_18
REMARK    5  A    between atoms: C_18  and  O_19
REMARK    6  A    between atoms: O_19  and  C_21
REMARK    7  A    between atoms: C_21  and  C_22
REMARK    8  A    between atoms: C_22  and  N_23
REMARK    9  A    between atoms: C_22  and  C_27
REMARK                            x       y       z     vdW  Elec       q    Type
REMARK                         _______ _______ _______ _____ _____    ______ ____
ROOT
ATOM      1  C   UNL     1      34.466 -14.934 -20.917  0.00  0.00    +0.223 C 
ENDROOT
BRANCH   1   3
ATOM      2  O   UNL     1      34.977 -19.493 -24.677  0.00  0.00    -0.208 OA
ATOM      3  N   UNL     1      34.676 -16.186 -21.630  0.00  0.00    -0.206 NA
ATOM      4  N   UNL     1      34.019 -15.625 -23.901  0.00  0.00    -0.279 N 
ATOM      5  N   UNL     1      35.221 -18.321 -21.983  0.00  0.00    -0.241 NA
ATOM      6  N   UNL     1      34.213 -17.448 -25.453  0.00  0.00    -0.301 NA
ATOM      7  N   UNL     1      33.449 -15.320 -26.120  0.00  0.00    -0.320 N 
ATOM      8  C   UNL     1      34.464 -16.433 -22.935  0.00  0.00    +0.191 C 
ATOM      9  C   UNL     1      34.799 -17.739 -23.145  0.00  0.00    +0.183 C 
ATOM     10  C   UNL     1      35.135 -17.353 -21.084  0.00  0.00    +0.205 C 
ATOM     11  C   UNL     1      34.682 -18.323 -24.466  0.00  0.00    +0.224 C 
ATOM     12  C   UNL     1      33.911 -16.194 -25.168  0.00  0.00    +0.245 C 
ATOM     13  H   UNL     1      33.784 -14.684 -23.728  0.00  0.00    +0.152 HD
ATOM     14  H   UNL     1      33.232 -14.391 -25.872  0.00  0.00    +0.146 HD
ATOM     15  H   UNL     1      33.333 -15.621 -27.049  0.00  0.00    +0.146 HD
ENDBRANCH   1   3
BRANCH   1  16
ATOM     16  O   UNL     1      33.074 -14.822 -20.652  0.00  0.00    -0.333 OA
BRANCH  16  17
ATOM     17  C   UNL     1      32.633 -13.474 -20.755  0.00  0.00    +0.191 C 
BRANCH  17  18
ATOM     18  C   UNL     1      32.151 -13.218 -22.169  0.00  0.00    +0.240 C 
BRANCH  18  19
ATOM     19  O   UNL     1      32.542 -11.898 -22.565  0.00  0.00    -0.447 OA
BRANCH  19  21
ATOM     20  O   UNL     1      33.827 -12.763 -24.271  0.00  0.00    -0.252 OA
ATOM     21  C   UNL     1      33.279 -11.820 -23.713  0.00  0.00    +0.296 C 
BRANCH  21  22
ATOM     22  C   UNL     1      33.312 -10.377 -24.193  0.00  0.00    +0.036 C 
BRANCH  22  23
ATOM     23  N   UNL     1      32.401  -9.592 -23.359  0.00  0.00    +0.389 N 
ATOM     24  H   UNL     1      31.686  -9.164 -23.947  0.00  0.00    -0.088 HD
ATOM     25  H   UNL     1      32.925  -8.863 -22.875  0.00  0.00    -0.088 HD
ATOM     26  H   UNL     1      31.957 -10.203 -22.673  0.00  0.00    -0.088 HD
ENDBRANCH  22  23
BRANCH  22  27
ATOM     27  C   UNL     1      34.751  -9.810 -24.212  0.00  0.00    -0.010 C 
ATOM     28  C   UNL     1      34.757  -8.303 -23.941  0.00  0.00    -0.002 C 
ATOM     29  C   UNL     1      35.511 -10.105 -25.511  0.00  0.00    -0.002 C 
ENDBRANCH  22  27
ENDBRANCH  21  22
ENDBRANCH  19  21
ENDBRANCH  18  19
ENDBRANCH  17  18
ENDBRANCH  16  17
ENDBRANCH   1  16
TORSDOF 9
ENDMDL
MODEL 5
REMARK VINA RESULT:      -8.1      3.345      8.507
REMARK  Name = 60773
REMARK  9 active torsions:
REMARK  status: ('A' for Active; 'I' for Inactive)
REMARK    1  A    between atoms: C_1  and  N_3
REMARK    2  A    between atoms: C_1  and  O_16
REMARK    3  A    between atoms: O_16  and  C_17
REMARK    4  A    between atoms: C_17  and  C_18
REMARK    5  A    between atoms: C_18  and  O_19
REMARK    6  A    between atoms: O_19  and  C_21
REMARK    7  A    between atoms: C_21  and  C_22
REMARK    8  A    between atoms: C_22  and  N_23
REMARK    9  A    between atoms: C_22  and  C_27
REMARK                            x       y       z     vdW  Elec       q    Type
REMARK                         _______ _______ _______ _____ _____    ______ ____
ROOT
ATOM      1  C   UNL     1      33.701 -14.001 -21.394  0.00  0.00    +0.223 C 
ENDROOT
BRANCH   1   3
ATOM      2  O   UNL     1      34.797 -18.017 -25.620  0.00  0.00    -0.208 OA
ATOM      3  N   UNL     1      34.089 -15.120 -22.240  0.00  0.00    -0.206 NA
ATOM      4  N   UNL     1      33.210 -14.481 -24.413  0.00  0.00    -0.279 N 
ATOM      5  N   UNL     1      34.986 -17.076 -22.832  0.00  0.00    -0.241 NA
ATOM      6  N   UNL     1      33.635 -16.084 -26.150  0.00  0.00    -0.301 NA
ATOM      7  N   UNL     1      32.463 -14.081 -26.564  0.00  0.00    -0.320 N 
ATOM      8  C   UNL     1      33.848 -15.280 -23.553  0.00  0.00    +0.191 C 
ATOM      9  C   UNL     1      34.398 -16.476 -23.910  0.00  0.00    +0.183 C 
ATOM     10  C   UNL     1      34.782 -16.229 -21.836  0.00  0.00    +0.205 C 
ATOM     11  C   UNL     1      34.310 -16.946 -25.278  0.00  0.00    +0.224 C 
ATOM     12  C   UNL     1      33.130 -14.940 -25.726  0.00  0.00    +0.245 C 
ATOM     13  H   UNL     1      32.821 -13.620 -24.135  0.00  0.00    +0.152 HD
ATOM     14  H   UNL     1      32.099 -13.235 -26.213  0.00  0.00    +0.146 HD
ATOM     15  H   UNL     1      32.349 -14.310 -27.513  0.00  0.00    +0.146 HD
ENDBRANCH   1   3
BRANCH   1  16
ATOM     16  O   UNL     1      32.295 -13.841 -21.518  0.00  0.00    -0.333 OA
BRANCH  16  17
ATOM     17  C   UNL     1      31.952 -12.504 -21.863  0.00  0.00    +0.191 C 
BRANCH  17  18
ATOM     18  C   UNL     1      31.537 -11.761 -20.609  0.00  0.00    +0.240 C 
BRANCH  18  19
ATOM     19  O   UNL     1      31.435 -10.364 -20.906  0.00  0.00    -0.447 OA
BRANCH  19  21
ATOM     20  O   UNL     1      32.351  -9.839 -18.858  0.00  0.00    -0.252 OA
ATOM     21  C   UNL     1      31.992  -9.522 -19.985  0.00  0.00    +0.296 C 
BRANCH  21  22
ATOM     22  C   UNL     1      32.100  -8.126 -20.579  0.00  0.00    +0.036 C 
BRANCH  22  23
ATOM     23  N   UNL     1      33.155  -7.401 -19.869  0.00  0.00    +0.389 N 
ATOM     24  H   UNL     1      32.907  -7.321 -18.883  0.00  0.00    -0.088 HD
ATOM     25  H   UNL     1      33.257  -6.469 -20.270  0.00  0.00    -0.088 HD
ATOM     26  H   UNL     1      34.035  -7.908 -19.959  0.00  0.00    -0.088 HD
ENDBRANCH  22  23
BRANCH  22  27
ATOM     27  C   UNL     1      32.323  -8.168 -22.109  0.00  0.00    -0.010 C 
ATOM     28  C   UNL     1      33.706  -7.626 -22.484  0.00  0.00    -0.002 C 
ATOM     29  C   UNL     1      31.244  -7.428 -22.909  0.00  0.00    -0.002 C 
ENDBRANCH  22  27
ENDBRANCH  21  22
ENDBRANCH  19  21
ENDBRANCH  18  19
ENDBRANCH  17  18
ENDBRANCH  16  17
ENDBRANCH   1  16
TORSDOF 9
ENDMDL
MODEL 6
REMARK VINA RESULT:      -8.1      3.323      8.448
REMARK  Name = 60773
REMARK  9 active torsions:
REMARK  status: ('A' for Active; 'I' for Inactive)
REMARK    1  A    between atoms: C_1  and  N_3
REMARK    2  A    between atoms: C_1  and  O_16
REMARK    3  A    between atoms: O_16  and  C_17
REMARK    4  A    between atoms: C_17  and  C_18
REMARK    5  A    between atoms: C_18  and  O_19
REMARK    6  A    between atoms: O_19  and  C_21
REMARK    7  A    between atoms: C_21  and  C_22
REMARK    8  A    between atoms: C_22  and  N_23
REMARK    9  A    between atoms: C_22  and  C_27
REMARK                            x       y       z     vdW  Elec       q    Type
REMARK                         _______ _______ _______ _____ _____    ______ ____
ROOT
ATOM      1  C   UNL     1      33.663 -13.683 -22.732  0.00  0.00    +0.223 C 
ENDROOT
BRANCH   1   3
ATOM      2  O   UNL     1      35.799 -18.777 -20.570  0.00  0.00    -0.208 OA
ATOM      3  N   UNL     1      34.196 -14.805 -21.973  0.00  0.00    -0.206 NA
ATOM      4  N   UNL     1      34.400 -16.543 -23.658  0.00  0.00    -0.279 N 
ATOM      5  N   UNL     1      34.955 -15.972 -20.229  0.00  0.00    -0.241 NA
ATOM      6  N   UNL     1      35.262 -18.622 -22.819  0.00  0.00    -0.301 NA
ATOM      7  N   UNL     1      34.678 -18.340 -25.085  0.00  0.00    -0.320 N 
ATOM      8  C   UNL     1      34.499 -16.033 -22.427  0.00  0.00    +0.191 C 
ATOM      9  C   UNL     1      34.963 -16.743 -21.357  0.00  0.00    +0.183 C 
ATOM     10  C   UNL     1      34.486 -14.804 -20.635  0.00  0.00    +0.205 C 
ATOM     11  C   UNL     1      35.380 -18.122 -21.517  0.00  0.00    +0.224 C 
ATOM     12  C   UNL     1      34.803 -17.869 -23.802  0.00  0.00    +0.245 C 
ATOM     13  H   UNL     1      34.063 -16.013 -24.416  0.00  0.00    +0.152 HD
ATOM     14  H   UNL     1      34.332 -17.750 -25.794  0.00  0.00    +0.146 HD
ATOM     15  H   UNL     1      34.934 -19.266 -25.296  0.00  0.00    +0.146 HD
ENDBRANCH   1   3
BRANCH   1  16
ATOM     16  O   UNL     1      32.304 -13.520 -22.355  0.00  0.00    -0.333 OA
BRANCH  16  17
ATOM     17  C   UNL     1      31.958 -12.145 -22.241  0.00  0.00    +0.191 C 
BRANCH  17  18
ATOM     18  C   UNL     1      31.585 -11.846 -20.802  0.00  0.00    +0.240 C 
BRANCH  18  19
ATOM     19  O   UNL     1      31.148 -10.486 -20.705  0.00  0.00    -0.447 OA
BRANCH  19  21
ATOM     20  O   UNL     1      32.461  -9.944 -18.890  0.00  0.00    -0.252 OA
ATOM     21  C   UNL     1      31.948  -9.660 -19.965  0.00  0.00    +0.296 C 
BRANCH  21  22
ATOM     22  C   UNL     1      32.105  -8.332 -20.689  0.00  0.00    +0.036 C 
BRANCH  22  23
ATOM     23  N   UNL     1      33.022  -7.491 -19.917  0.00  0.00    +0.389 N 
ATOM     24  H   UNL     1      33.957  -7.548 -20.321  0.00  0.00    -0.088 HD
ATOM     25  H   UNL     1      33.049  -7.816 -18.951  0.00  0.00    -0.088 HD
ATOM     26  H   UNL     1      32.699  -6.524 -19.942  0.00  0.00    -0.088 HD
ENDBRANCH  22  23
BRANCH  22  27
ATOM     27  C   UNL     1      32.555  -8.525 -22.156  0.00  0.00    -0.010 C 
ATOM     28  C   UNL     1      33.762  -7.643 -22.488  0.00  0.00    -0.002 C 
ATOM     29  C   UNL     1      31.439  -8.281 -23.179  0.00  0.00    -0.002 C 
ENDBRANCH  22  27
ENDBRANCH  21  22
ENDBRANCH  19  21
ENDBRANCH  18  19
ENDBRANCH  17  18
ENDBRANCH  16  17
ENDBRANCH   1  16
TORSDOF 9
ENDMDL
MODEL 7
REMARK VINA RESULT:      -8.1      6.492     11.216
REMARK  Name = 60773
REMARK  9 active torsions:
REMARK  status: ('A' for Active; 'I' for Inactive)
REMARK    1  A    between atoms: C_1  and  N_3
REMARK    2  A    between atoms: C_1  and  O_16
REMARK    3  A    between atoms: O_16  and  C_17
REMARK    4  A    between atoms: C_17  and  C_18
REMARK    5  A    between atoms: C_18  and  O_19
REMARK    6  A    between atoms: O_19  and  C_21
REMARK    7  A    between atoms: C_21  and  C_22
REMARK    8  A    between atoms: C_22  and  N_23
REMARK    9  A    between atoms: C_22  and  C_27
REMARK                            x       y       z     vdW  Elec       q    Type
REMARK                         _______ _______ _______ _____ _____    ______ ____
ROOT
ATOM      1  C   UNL     1      34.872 -24.229 -16.163  0.00  0.00    +0.223 C 
ENDROOT
BRANCH   1   3
ATOM      2  O   UNL     1      35.339 -24.813 -10.278  0.00  0.00    -0.208 OA
ATOM      3  N   UNL     1      34.742 -24.278 -14.713  0.00  0.00    -0.206 NA
ATOM      4  N   UNL     1      36.895 -25.159 -14.012  0.00  0.00    -0.279 N 
ATOM      5  N   UNL     1      33.822 -24.060 -12.692  0.00  0.00    -0.241 NA
ATOM      6  N   UNL     1      37.121 -25.409 -11.634  0.00  0.00    -0.301 NA
ATOM      7  N   UNL     1      38.861 -25.981 -13.118  0.00  0.00    -0.320 N 
ATOM      8  C   UNL     1      35.657 -24.693 -13.821  0.00  0.00    +0.191 C 
ATOM      9  C   UNL     1      35.090 -24.559 -12.587  0.00  0.00    +0.183 C 
ATOM     10  C   UNL     1      33.641 -23.900 -13.993  0.00  0.00    +0.205 C 
ATOM     11  C   UNL     1      35.829 -24.926 -11.395  0.00  0.00    +0.224 C 
ATOM     12  C   UNL     1      37.598 -25.509 -12.861  0.00  0.00    +0.245 C 
ATOM     13  H   UNL     1      37.286 -25.247 -14.911  0.00  0.00    +0.152 HD
ATOM     14  H   UNL     1      39.185 -26.042 -14.046  0.00  0.00    +0.146 HD
ATOM     15  H   UNL     1      39.443 -26.258 -12.374  0.00  0.00    +0.146 HD
ENDBRANCH   1   3
BRANCH   1  16
ATOM     16  O   UNL     1      35.055 -22.869 -16.529  0.00  0.00    -0.333 OA
BRANCH  16  17
ATOM     17  C   UNL     1      36.338 -22.394 -16.137  0.00  0.00    +0.191 C 
BRANCH  17  18
ATOM     18  C   UNL     1      36.999 -21.721 -17.323  0.00  0.00    +0.240 C 
BRANCH  18  19
ATOM     19  O   UNL     1      36.268 -22.044 -18.512  0.00  0.00    -0.447 OA
BRANCH  19  21
ATOM     20  O   UNL     1      36.849 -20.075 -19.557  0.00  0.00    -0.252 OA
ATOM     21  C   UNL     1      36.080 -21.011 -19.388  0.00  0.00    +0.296 C 
BRANCH  21  22
ATOM     22  C   UNL     1      34.764 -21.210 -20.124  0.00  0.00    +0.036 C 
BRANCH  22  23
ATOM     23  N   UNL     1      33.836 -21.908 -19.232  0.00  0.00    +0.389 N 
ATOM     24  H   UNL     1      34.338 -22.230 -18.405  0.00  0.00    -0.088 HD
ATOM     25  H   UNL     1      33.434 -22.709 -19.719  0.00  0.00    -0.088 HD
ATOM     26  H   UNL     1      33.091 -21.271 -18.952  0.00  0.00    -0.088 HD
ENDBRANCH  22  23
BRANCH  22  27
ATOM     27  C   UNL     1      34.196 -19.874 -20.658  0.00  0.00    -0.010 C 
ATOM     28  C   UNL     1      32.667 -19.843 -20.563  0.00  0.00    -0.002 C 
ATOM     29  C   UNL     1      34.632 -19.550 -22.092  0.00  0.00    -0.002 C 
ENDBRANCH  22  27
ENDBRANCH  21  22
ENDBRANCH  19  21
ENDBRANCH  18  19
ENDBRANCH  17  18
ENDBRANCH  16  17
ENDBRANCH   1  16
TORSDOF 9
ENDMDL
MODEL 8
REMARK VINA RESULT:      -8.1      1.755      2.701
REMARK  Name = 60773
REMARK  9 active torsions:
REMARK  status: ('A' for Active; 'I' for Inactive)
REMARK    1  A    between atoms: C_1  and  N_3
REMARK    2  A    between atoms: C_1  and  O_16
REMARK    3  A    between atoms: O_16  and  C_17
REMARK    4  A    between atoms: C_17  and  C_18
REMARK    5  A    between atoms: C_18  and  O_19
REMARK    6  A    between atoms: O_19  and  C_21
REMARK    7  A    between atoms: C_21  and  C_22
REMARK    8  A    between atoms: C_22  and  N_23
REMARK    9  A    between atoms: C_22  and  C_27
REMARK                            x       y       z     vdW  Elec       q    Type
REMARK                         _______ _______ _______ _____ _____    ______ ____
ROOT
ATOM      1  C   UNL     1      34.936 -15.929 -23.333  0.00  0.00    +0.223 C 
ENDROOT
BRANCH   1   3
ATOM      2  O   UNL     1      31.040 -11.854 -21.487  0.00  0.00    -0.208 OA
ATOM      3  N   UNL     1      33.888 -15.121 -22.727  0.00  0.00    -0.206 NA
ATOM      4  N   UNL     1      34.181 -12.965 -23.808  0.00  0.00    -0.279 N 
ATOM      5  N   UNL     1      32.159 -14.581 -21.422  0.00  0.00    -0.241 NA
ATOM      6  N   UNL     1      32.620 -11.289 -23.085  0.00  0.00    -0.301 NA
ATOM      7  N   UNL     1      34.273 -10.836 -24.704  0.00  0.00    -0.320 N 
ATOM      8  C   UNL     1      33.602 -13.830 -22.970  0.00  0.00    +0.191 C 
ATOM      9  C   UNL     1      32.545 -13.505 -22.171  0.00  0.00    +0.183 C 
ATOM     10  C   UNL     1      32.992 -15.545 -21.783  0.00  0.00    +0.205 C 
ATOM     11  C   UNL     1      31.989 -12.167 -22.197  0.00  0.00    +0.224 C 
ATOM     12  C   UNL     1      33.640 -11.681 -23.827  0.00  0.00    +0.245 C 
ATOM     13  H   UNL     1      34.943 -13.220 -24.377  0.00  0.00    +0.152 HD
ATOM     14  H   UNL     1      35.031 -11.163 -25.241  0.00  0.00    +0.146 HD
ATOM     15  H   UNL     1      33.971  -9.904 -24.794  0.00  0.00    +0.146 HD
ENDBRANCH   1   3
BRANCH   1  16
ATOM     16  O   UNL     1      34.385 -16.547 -24.487  0.00  0.00    -0.333 OA
BRANCH  16  17
ATOM     17  C   UNL     1      34.712 -17.930 -24.542  0.00  0.00    +0.191 C 
BRANCH  17  18
ATOM     18  C   UNL     1      35.674 -18.256 -23.416  0.00  0.00    +0.240 C 
BRANCH  18  19
ATOM     19  O   UNL     1      35.074 -19.233 -22.557  0.00  0.00    -0.447 OA
BRANCH  19  21
ATOM     20  O   UNL     1      35.515 -18.010 -20.655  0.00  0.00    -0.252 OA
ATOM     21  C   UNL     1      35.323 -19.077 -21.222  0.00  0.00    +0.296 C 
BRANCH  21  22
ATOM     22  C   UNL     1      35.322 -20.441 -20.548  0.00  0.00    +0.036 C 
BRANCH  22  23
ATOM     23  N   UNL     1      36.502 -20.531 -19.686  0.00  0.00    +0.389 N 
ATOM     24  H   UNL     1      36.428 -21.359 -19.095  0.00  0.00    -0.088 HD
ATOM     25  H   UNL     1      36.558 -19.698 -19.099  0.00  0.00    -0.088 HD
ATOM     26  H   UNL     1      37.340 -20.598 -20.263  0.00  0.00    -0.088 HD
ENDBRANCH  22  23
BRANCH  22  27
ATOM     27  C   UNL     1      34.000 -20.708 -19.791  0.00  0.00    -0.010 C 
ATOM     28  C   UNL     1      33.866 -22.186 -19.412  0.00  0.00    -0.002 C 
ATOM     29  C   UNL     1      32.751 -20.255 -20.557  0.00  0.00    -0.002 C 
ENDBRANCH  22  27
ENDBRANCH  21  22
ENDBRANCH  19  21
ENDBRANCH  18  19
ENDBRANCH  17  18
ENDBRANCH  16  17
ENDBRANCH   1  16
TORSDOF 9
ENDMDL
MODEL 9
REMARK VINA RESULT:      -8.1     11.164     13.147
REMARK  Name = 60773
REMARK  9 active torsions:
REMARK  status: ('A' for Active; 'I' for Inactive)
REMARK    1  A    between atoms: C_1  and  N_3
REMARK    2  A    between atoms: C_1  and  O_16
REMARK    3  A    between atoms: O_16  and  C_17
REMARK    4  A    between atoms: C_17  and  C_18
REMARK    5  A    between atoms: C_18  and  O_19
REMARK    6  A    between atoms: O_19  and  C_21
REMARK    7  A    between atoms: C_21  and  C_22
REMARK    8  A    between atoms: C_22  and  N_23
REMARK    9  A    between atoms: C_22  and  C_27
REMARK                            x       y       z     vdW  Elec       q    Type
REMARK                         _______ _______ _______ _____ _____    ______ ____
ROOT
ATOM      1  C   UNL     1      35.428 -24.221 -11.465  0.00  0.00    +0.223 C 
ENDROOT
BRANCH   1   3
ATOM      2  O   UNL     1      40.527 -25.086 -14.370  0.00  0.00    -0.208 OA
ATOM      3  N   UNL     1      36.778 -24.259 -12.009  0.00  0.00    -0.206 NA
ATOM      4  N   UNL     1      36.578 -25.857 -13.828  0.00  0.00    -0.279 N 
ATOM      5  N   UNL     1      38.946 -23.787 -12.248  0.00  0.00    -0.241 NA
ATOM      6  N   UNL     1      38.624 -26.233 -15.028  0.00  0.00    -0.301 NA
ATOM      7  N   UNL     1      36.623 -27.339 -15.601  0.00  0.00    -0.320 N 
ATOM      8  C   UNL     1      37.226 -24.993 -13.042  0.00  0.00    +0.191 C 
ATOM      9  C   UNL     1      38.552 -24.700 -13.184  0.00  0.00    +0.183 C 
ATOM     10  C   UNL     1      37.848 -23.539 -11.551  0.00  0.00    +0.205 C 
ATOM     11  C   UNL     1      39.336 -25.335 -14.225  0.00  0.00    +0.224 C 
ATOM     12  C   UNL     1      37.339 -26.462 -14.826  0.00  0.00    +0.245 C 
ATOM     13  H   UNL     1      35.620 -26.053 -13.709  0.00  0.00    +0.152 HD
ATOM     14  H   UNL     1      35.665 -27.485 -15.422  0.00  0.00    +0.146 HD
ATOM     15  H   UNL     1      37.066 -27.822 -16.334  0.00  0.00    +0.146 HD
ENDBRANCH   1   3
BRANCH   1  16
ATOM     16  O   UNL     1      34.557 -24.761 -12.448  0.00  0.00    -0.333 OA
BRANCH  16  17
ATOM     17  C   UNL     1      33.898 -23.734 -13.178  0.00  0.00    +0.191 C 
BRANCH  17  18
ATOM     18  C   UNL     1      33.125 -24.359 -14.323  0.00  0.00    +0.240 C 
BRANCH  18  19
ATOM     19  O   UNL     1      32.102 -25.208 -13.788  0.00  0.00    -0.447 OA
BRANCH  19  21
ATOM     20  O   UNL     1      30.570 -24.077 -12.490  0.00  0.00    -0.252 OA
ATOM     21  C   UNL     1      30.901 -24.603 -13.545  0.00  0.00    +0.296 C 
BRANCH  21  22
ATOM     22  C   UNL     1      30.036 -24.682 -14.794  0.00  0.00    +0.036 C 
BRANCH  22  23
ATOM     23  N   UNL     1      28.844 -25.472 -14.481  0.00  0.00    +0.389 N 
ATOM     24  H   UNL     1      28.096 -25.229 -15.130  0.00  0.00    -0.088 HD
ATOM     25  H   UNL     1      28.545 -25.273 -13.527  0.00  0.00    -0.088 HD
ATOM     26  H   UNL     1      29.062 -26.464 -14.569  0.00  0.00    -0.088 HD
ENDBRANCH  22  23
BRANCH  22  27
ATOM     27  C   UNL     1      29.700 -23.279 -15.351  0.00  0.00    -0.010 C 
ATOM     28  C   UNL     1      28.245 -23.203 -15.825  0.00  0.00    -0.002 C 
ATOM     29  C   UNL     1      30.635 -22.825 -16.479  0.00  0.00    -0.002 C 
ENDBRANCH  22  27
ENDBRANCH  21  22
ENDBRANCH  19  21
ENDBRANCH  18  19
ENDBRANCH  17  18
ENDBRANCH  16  17
ENDBRANCH   1  16
TORSDOF 9
ENDMDL
