MODEL 1
REMARK VINA RESULT:      -8.9      0.000      0.000
REMARK  Name = 5325
REMARK  3 active torsions:
REMARK  status: ('A' for Active; 'I' for Inactive)
REMARK    1  A    between atoms: S_1  and  N_4
REMARK    2  A    between atoms: S_1  and  C_13
REMARK    3  A    between atoms: C_16  and  N_19
REMARK                            x       y       z     vdW  Elec       q    Type
REMARK                         _______ _______ _______ _____ _____    ______ ____
ROOT
ATOM      1  S   UNL     1      33.769 -23.122 -18.036  0.00  0.00    +0.082 S 
ATOM      2  O   UNL     1      34.768 -23.087 -16.973  0.00  0.00    -0.149 OA
ATOM      3  O   UNL     1      33.594 -24.355 -18.795  0.00  0.00    -0.149 OA
ENDROOT
BRANCH   1   4
ATOM      4  N   UNL     1      32.258 -22.638 -17.365  0.00  0.00    -0.148 N 
ATOM      5  N   UNL     1      30.803 -24.032 -16.139  0.00  0.00    -0.341 NA
ATOM      6  N   UNL     1      32.595 -22.855 -15.040  0.00  0.00    -0.169 NA
ATOM      7  C   UNL     1      31.862 -23.209 -16.106  0.00  0.00    +0.164 C 
ATOM      8  C   UNL     1      30.458 -24.550 -14.942  0.00  0.00    +0.124 C 
ATOM      9  C   UNL     1      31.124 -24.272 -13.766  0.00  0.00    +0.050 C 
ATOM     10  C   UNL     1      32.196 -23.409 -13.876  0.00  0.00    +0.114 C 
ATOM     11  C   UNL     1      29.286 -25.472 -14.922  0.00  0.00    +0.067 C 
ATOM     12  H   UNL     1      31.682 -21.988 -17.830  0.00  0.00    +0.187 HD
ENDBRANCH   1   4
BRANCH   1  13
ATOM     13  C   UNL     1      34.131 -21.827 -19.149  0.00  0.00    +0.126 C 
ATOM     14  C   UNL     1      33.097 -21.064 -19.690  0.00  0.00    +0.021 C 
ATOM     15  C   UNL     1      35.455 -21.556 -19.497  0.00  0.00    +0.021 C 
ATOM     16  C   UNL     1      34.709 -19.757 -20.928  0.00  0.00    +0.042 C 
ATOM     17  C   UNL     1      33.386 -20.028 -20.579  0.00  0.00    +0.015 C 
ATOM     18  C   UNL     1      35.744 -20.520 -20.386  0.00  0.00    +0.015 C 
BRANCH  16  19
ATOM     19  N   UNL     1      35.002 -18.710 -21.826  0.00  0.00    -0.357 N 
ATOM     20  H   UNL     1      35.612 -17.986 -21.555  0.00  0.00    +0.142 HD
ATOM     21  H   UNL     1      34.595 -18.702 -22.722  0.00  0.00    +0.142 HD
ENDBRANCH  16  19
ENDBRANCH   1  13
TORSDOF 3
ENDMDL
MODEL 2
REMARK VINA RESULT:      -8.7      5.175      9.159
REMARK  Name = 5325
REMARK  3 active torsions:
REMARK  status: ('A' for Active; 'I' for Inactive)
REMARK    1  A    between atoms: S_1  and  N_4
REMARK    2  A    between atoms: S_1  and  C_13
REMARK    3  A    between atoms: C_16  and  N_19
REMARK                            x       y       z     vdW  Elec       q    Type
REMARK                         _______ _______ _______ _____ _____    ______ ____
ROOT
ATOM      1  S   UNL     1      34.843 -17.178 -21.540  0.00  0.00    +0.082 S 
ATOM      2  O   UNL     1      35.745 -17.372 -22.669  0.00  0.00    -0.149 OA
ATOM      3  O   UNL     1      35.284 -16.351 -20.423  0.00  0.00    -0.149 OA
ENDROOT
BRANCH   1   4
ATOM      4  N   UNL     1      33.347 -16.576 -22.148  0.00  0.00    -0.148 N 
ATOM      5  N   UNL     1      32.493 -14.412 -21.761  0.00  0.00    -0.341 NA
ATOM      6  N   UNL     1      34.006 -14.828 -23.590  0.00  0.00    -0.169 NA
ATOM      7  C   UNL     1      33.278 -15.189 -22.522  0.00  0.00    +0.164 C 
ATOM      8  C   UNL     1      32.450 -13.118 -22.140  0.00  0.00    +0.124 C 
ATOM      9  C   UNL     1      33.148 -12.610 -23.217  0.00  0.00    +0.050 C 
ATOM     10  C   UNL     1      33.917 -13.520 -23.912  0.00  0.00    +0.114 C 
ATOM     11  C   UNL     1      31.591 -12.209 -21.327  0.00  0.00    +0.067 C 
ATOM     12  H   UNL     1      32.563 -17.164 -22.238  0.00  0.00    +0.187 HD
ENDBRANCH   1   4
BRANCH   1  13
ATOM     13  C   UNL     1      34.406 -18.755 -20.931  0.00  0.00    +0.126 C 
ATOM     14  C   UNL     1      33.062 -19.093 -20.773  0.00  0.00    +0.021 C 
ATOM     15  C   UNL     1      35.400 -19.676 -20.602  0.00  0.00    +0.021 C 
ATOM     16  C   UNL     1      33.706 -21.274 -19.957  0.00  0.00    +0.042 C 
ATOM     17  C   UNL     1      32.712 -20.353 -20.286  0.00  0.00    +0.015 C 
ATOM     18  C   UNL     1      35.051 -20.936 -20.116  0.00  0.00    +0.015 C 
BRANCH  16  19
ATOM     19  N   UNL     1      33.353 -22.548 -19.466  0.00  0.00    -0.357 N 
ATOM     20  H   UNL     1      33.594 -23.355 -19.975  0.00  0.00    +0.142 HD
ATOM     21  H   UNL     1      32.865 -22.630 -18.615  0.00  0.00    +0.142 HD
ENDBRANCH  16  19
ENDBRANCH   1  13
TORSDOF 3
ENDMDL
MODEL 3
REMARK VINA RESULT:      -8.5      8.577     11.307
REMARK  Name = 5325
REMARK  3 active torsions:
REMARK  status: ('A' for Active; 'I' for Inactive)
REMARK    1  A    between atoms: S_1  and  N_4
REMARK    2  A    between atoms: S_1  and  C_13
REMARK    3  A    between atoms: C_16  and  N_19
REMARK                            x       y       z     vdW  Elec       q    Type
REMARK                         _______ _______ _______ _____ _____    ______ ____
ROOT
ATOM      1  S   UNL     1      33.309 -13.397 -23.769  0.00  0.00    +0.082 S 
ATOM      2  O   UNL     1      32.959 -13.886 -25.098  0.00  0.00    -0.149 OA
ATOM      3  O   UNL     1      34.220 -12.264 -23.655  0.00  0.00    -0.149 OA
ENDROOT
BRANCH   1   4
ATOM      4  N   UNL     1      31.848 -13.049 -22.925  0.00  0.00    -0.148 N 
ATOM      5  N   UNL     1      31.708 -11.971 -20.832  0.00  0.00    -0.341 NA
ATOM      6  N   UNL     1      31.793 -10.691 -22.873  0.00  0.00    -0.169 NA
ATOM      7  C   UNL     1      31.779 -11.831 -22.165  0.00  0.00    +0.164 C 
ATOM      8  C   UNL     1      31.644 -10.809 -20.150  0.00  0.00    +0.124 C 
ATOM      9  C   UNL     1      31.650  -9.566 -20.750  0.00  0.00    +0.050 C 
ATOM     10  C   UNL     1      31.727  -9.568 -22.127  0.00  0.00    +0.114 C 
ATOM     11  C   UNL     1      31.563 -10.907 -18.663  0.00  0.00    +0.067 C 
ATOM     12  H   UNL     1      31.081 -13.667 -22.963  0.00  0.00    +0.187 HD
ENDBRANCH   1   4
BRANCH   1  13
ATOM     13  C   UNL     1      33.968 -14.737 -22.865  0.00  0.00    +0.126 C 
ATOM     14  C   UNL     1      34.008 -14.686 -21.472  0.00  0.00    +0.021 C 
ATOM     15  C   UNL     1      34.455 -15.859 -23.536  0.00  0.00    +0.021 C 
ATOM     16  C   UNL     1      35.022 -16.879 -21.420  0.00  0.00    +0.042 C 
ATOM     17  C   UNL     1      34.535 -15.757 -20.749  0.00  0.00    +0.015 C 
ATOM     18  C   UNL     1      34.982 -16.931 -22.814  0.00  0.00    +0.015 C 
BRANCH  16  19
ATOM     19  N   UNL     1      35.553 -17.962 -20.690  0.00  0.00    -0.357 N 
ATOM     20  H   UNL     1      36.463 -18.285 -20.882  0.00  0.00    +0.142 HD
ATOM     21  H   UNL     1      35.015 -18.395 -19.989  0.00  0.00    +0.142 HD
ENDBRANCH  16  19
ENDBRANCH   1  13
TORSDOF 3
ENDMDL
MODEL 4
REMARK VINA RESULT:      -8.3      4.780      6.889
REMARK  Name = 5325
REMARK  3 active torsions:
REMARK  status: ('A' for Active; 'I' for Inactive)
REMARK    1  A    between atoms: S_1  and  N_4
REMARK    2  A    between atoms: S_1  and  C_13
REMARK    3  A    between atoms: C_16  and  N_19
REMARK                            x       y       z     vdW  Elec       q    Type
REMARK                         _______ _______ _______ _____ _____    ______ ____
ROOT
ATOM      1  S   UNL     1      35.203 -18.398 -22.988  0.00  0.00    +0.082 S 
ATOM      2  O   UNL     1      36.661 -18.372 -22.967  0.00  0.00    -0.149 OA
ATOM      3  O   UNL     1      34.530 -19.404 -23.801  0.00  0.00    -0.149 OA
ENDROOT
BRANCH   1   4
ATOM      4  N   UNL     1      34.647 -18.506 -21.360  0.00  0.00    -0.148 N 
ATOM      5  N   UNL     1      34.095 -20.507 -20.240  0.00  0.00    -0.341 NA
ATOM      6  N   UNL     1      36.366 -19.703 -20.273  0.00  0.00    -0.169 NA
ATOM      7  C   UNL     1      35.061 -19.640 -20.578  0.00  0.00    +0.164 C 
ATOM      8  C   UNL     1      34.516 -21.558 -19.506  0.00  0.00    +0.124 C 
ATOM      9  C   UNL     1      35.828 -21.748 -19.122  0.00  0.00    +0.050 C 
ATOM     10  C   UNL     1      36.718 -20.779 -19.538  0.00  0.00    +0.114 C 
ATOM     11  C   UNL     1      33.481 -22.554 -19.104  0.00  0.00    +0.067 C 
ATOM     12  H   UNL     1      34.064 -17.812 -20.977  0.00  0.00    +0.187 HD
ENDBRANCH   1   4
BRANCH   1  13
ATOM     13  C   UNL     1      34.650 -16.818 -23.481  0.00  0.00    +0.126 C 
ATOM     14  C   UNL     1      34.702 -15.750 -22.585  0.00  0.00    +0.021 C 
ATOM     15  C   UNL     1      34.154 -16.623 -24.771  0.00  0.00    +0.021 C 
ATOM     16  C   UNL     1      33.765 -14.292 -24.269  0.00  0.00    +0.042 C 
ATOM     17  C   UNL     1      34.261 -14.486 -22.980  0.00  0.00    +0.015 C 
ATOM     18  C   UNL     1      33.713 -15.360 -25.165  0.00  0.00    +0.015 C 
BRANCH  16  19
ATOM     19  N   UNL     1      33.319 -13.015 -24.668  0.00  0.00    -0.357 N 
ATOM     20  H   UNL     1      32.364 -12.862 -24.847  0.00  0.00    +0.142 HD
ATOM     21  H   UNL     1      33.964 -12.277 -24.769  0.00  0.00    +0.142 HD
ENDBRANCH  16  19
ENDBRANCH   1  13
TORSDOF 3
ENDMDL
MODEL 5
REMARK VINA RESULT:      -8.2      8.213     11.257
REMARK  Name = 5325
REMARK  3 active torsions:
REMARK  status: ('A' for Active; 'I' for Inactive)
REMARK    1  A    between atoms: S_1  and  N_4
REMARK    2  A    between atoms: S_1  and  C_13
REMARK    3  A    between atoms: C_16  and  N_19
REMARK                            x       y       z     vdW  Elec       q    Type
REMARK                         _______ _______ _______ _____ _____    ______ ____
ROOT
ATOM      1  S   UNL     1      32.946 -13.739 -23.586  0.00  0.00    +0.082 S 
ATOM      2  O   UNL     1      32.517 -14.089 -24.935  0.00  0.00    -0.149 OA
ATOM      3  O   UNL     1      32.115 -14.145 -22.458  0.00  0.00    -0.149 OA
ENDROOT
BRANCH   1   4
ATOM      4  N   UNL     1      34.549 -14.329 -23.364  0.00  0.00    -0.148 N 
ATOM      5  N   UNL     1      35.117 -16.369 -22.325  0.00  0.00    -0.341 NA
ATOM      6  N   UNL     1      34.599 -16.289 -24.676  0.00  0.00    -0.169 NA
ATOM      7  C   UNL     1      34.768 -15.748 -23.461  0.00  0.00    +0.164 C 
ATOM      8  C   UNL     1      35.315 -17.697 -22.451  0.00  0.00    +0.124 C 
ATOM      9  C   UNL     1      35.175 -18.384 -23.641  0.00  0.00    +0.050 C 
ATOM     10  C   UNL     1      34.812 -17.621 -24.731  0.00  0.00    +0.114 C 
ATOM     11  C   UNL     1      35.706 -18.438 -21.216  0.00  0.00    +0.067 C 
ATOM     12  H   UNL     1      35.294 -13.714 -23.176  0.00  0.00    +0.187 HD
ENDBRANCH   1   4
BRANCH   1  13
ATOM     13  C   UNL     1      33.159 -12.008 -23.529  0.00  0.00    +0.126 C 
ATOM     14  C   UNL     1      34.156 -11.402 -24.294  0.00  0.00    +0.021 C 
ATOM     15  C   UNL     1      32.334 -11.229 -22.717  0.00  0.00    +0.021 C 
ATOM     16  C   UNL     1      33.502  -9.240 -23.437  0.00  0.00    +0.042 C 
ATOM     17  C   UNL     1      34.327 -10.018 -24.249  0.00  0.00    +0.015 C 
ATOM     18  C   UNL     1      32.504  -9.845 -22.671  0.00  0.00    +0.015 C 
BRANCH  16  19
ATOM     19  N   UNL     1      33.673  -7.841 -23.391  0.00  0.00    -0.357 N 
ATOM     20  H   UNL     1      33.280  -7.274 -24.093  0.00  0.00    +0.142 HD
ATOM     21  H   UNL     1      34.187  -7.432 -22.659  0.00  0.00    +0.142 HD
ENDBRANCH  16  19
ENDBRANCH   1  13
TORSDOF 3
ENDMDL
MODEL 6
REMARK VINA RESULT:      -8.2      1.956      2.486
REMARK  Name = 5325
REMARK  3 active torsions:
REMARK  status: ('A' for Active; 'I' for Inactive)
REMARK    1  A    between atoms: S_1  and  N_4
REMARK    2  A    between atoms: S_1  and  C_13
REMARK    3  A    between atoms: C_16  and  N_19
REMARK                            x       y       z     vdW  Elec       q    Type
REMARK                         _______ _______ _______ _____ _____    ______ ____
ROOT
ATOM      1  S   UNL     1      35.347 -23.510 -15.362  0.00  0.00    +0.082 S 
ATOM      2  O   UNL     1      36.551 -23.182 -14.607  0.00  0.00    -0.149 OA
ATOM      3  O   UNL     1      35.024 -24.912 -15.595  0.00  0.00    -0.149 OA
ENDROOT
BRANCH   1   4
ATOM      4  N   UNL     1      34.012 -22.728 -14.604  0.00  0.00    -0.148 N 
ATOM      5  N   UNL     1      31.749 -23.001 -15.213  0.00  0.00    -0.341 NA
ATOM      6  N   UNL     1      32.796 -24.515 -13.658  0.00  0.00    -0.169 NA
ATOM      7  C   UNL     1      32.778 -23.459 -14.484  0.00  0.00    +0.164 C 
ATOM      8  C   UNL     1      30.609 -23.708 -15.078  0.00  0.00    +0.124 C 
ATOM      9  C   UNL     1      30.485 -24.816 -14.263  0.00  0.00    +0.050 C 
ATOM     10  C   UNL     1      31.623 -25.177 -13.570  0.00  0.00    +0.114 C 
ATOM     11  C   UNL     1      29.432 -23.241 -15.867  0.00  0.00    +0.067 C 
ATOM     12  H   UNL     1      34.090 -21.808 -14.261  0.00  0.00    +0.187 HD
ENDBRANCH   1   4
BRANCH   1  13
ATOM     13  C   UNL     1      35.448 -22.696 -16.903  0.00  0.00    +0.126 C 
ATOM     14  C   UNL     1      34.367 -22.735 -17.784  0.00  0.00    +0.021 C 
ATOM     15  C   UNL     1      36.609 -22.005 -17.253  0.00  0.00    +0.021 C 
ATOM     16  C   UNL     1      35.608 -21.395 -19.366  0.00  0.00    +0.042 C 
ATOM     17  C   UNL     1      34.447 -22.084 -19.015  0.00  0.00    +0.015 C 
ATOM     18  C   UNL     1      36.689 -21.354 -18.484  0.00  0.00    +0.015 C 
BRANCH  16  19
ATOM     19  N   UNL     1      35.689 -20.736 -20.610  0.00  0.00    -0.357 N 
ATOM     20  H   UNL     1      34.913 -20.237 -20.954  0.00  0.00    +0.142 HD
ATOM     21  H   UNL     1      36.520 -20.776 -21.135  0.00  0.00    +0.142 HD
ENDBRANCH  16  19
ENDBRANCH   1  13
TORSDOF 3
ENDMDL
MODEL 7
REMARK VINA RESULT:      -8.1      4.265      6.847
REMARK  Name = 5325
REMARK  3 active torsions:
REMARK  status: ('A' for Active; 'I' for Inactive)
REMARK    1  A    between atoms: S_1  and  N_4
REMARK    2  A    between atoms: S_1  and  C_13
REMARK    3  A    between atoms: C_16  and  N_19
REMARK                            x       y       z     vdW  Elec       q    Type
REMARK                         _______ _______ _______ _____ _____    ______ ____
ROOT
ATOM      1  S   UNL     1      34.684 -23.559 -15.620  0.00  0.00    +0.082 S 
ATOM      2  O   UNL     1      35.162 -22.629 -14.604  0.00  0.00    -0.149 OA
ATOM      3  O   UNL     1      34.752 -23.164 -17.022  0.00  0.00    -0.149 OA
ENDROOT
BRANCH   1   4
ATOM      4  N   UNL     1      35.505 -25.058 -15.402  0.00  0.00    -0.148 N 
ATOM      5  N   UNL     1      37.788 -25.294 -14.860  0.00  0.00    -0.341 NA
ATOM      6  N   UNL     1      36.135 -25.012 -13.129  0.00  0.00    -0.169 NA
ATOM      7  C   UNL     1      36.538 -25.125 -14.404  0.00  0.00    +0.164 C 
ATOM      8  C   UNL     1      38.732 -25.353 -13.898  0.00  0.00    +0.124 C 
ATOM      9  C   UNL     1      38.459 -25.250 -12.549  0.00  0.00    +0.050 C 
ATOM     10  C   UNL     1      37.130 -25.080 -12.219  0.00  0.00    +0.114 C 
ATOM     11  C   UNL     1      40.141 -25.539 -14.351  0.00  0.00    +0.067 C 
ATOM     12  H   UNL     1      35.273 -25.847 -15.945  0.00  0.00    +0.187 HD
ENDBRANCH   1   4
BRANCH   1  13
ATOM     13  C   UNL     1      33.030 -23.965 -15.234  0.00  0.00    +0.126 C 
ATOM     14  C   UNL     1      31.997 -23.551 -16.074  0.00  0.00    +0.021 C 
ATOM     15  C   UNL     1      32.742 -24.702 -14.085  0.00  0.00    +0.021 C 
ATOM     16  C   UNL     1      30.387 -24.612 -14.618  0.00  0.00    +0.042 C 
ATOM     17  C   UNL     1      30.675 -23.876 -15.766  0.00  0.00    +0.015 C 
ATOM     18  C   UNL     1      31.421 -25.026 -13.777  0.00  0.00    +0.015 C 
BRANCH  16  19
ATOM     19  N   UNL     1      29.052 -24.941 -14.306  0.00  0.00    -0.357 N 
ATOM     20  H   UNL     1      28.384 -25.018 -15.025  0.00  0.00    +0.142 HD
ATOM     21  H   UNL     1      28.787 -25.092 -13.370  0.00  0.00    +0.142 HD
ENDBRANCH  16  19
ENDBRANCH   1  13
TORSDOF 3
ENDMDL
MODEL 8
REMARK VINA RESULT:      -8.0      3.712      5.940
REMARK  Name = 5325
REMARK  3 active torsions:
REMARK  status: ('A' for Active; 'I' for Inactive)
REMARK    1  A    between atoms: S_1  and  N_4
REMARK    2  A    between atoms: S_1  and  C_13
REMARK    3  A    between atoms: C_16  and  N_19
REMARK                            x       y       z     vdW  Elec       q    Type
REMARK                         _______ _______ _______ _____ _____    ______ ____
ROOT
ATOM      1  S   UNL     1      34.927 -23.442 -16.017  0.00  0.00    +0.082 S 
ATOM      2  O   UNL     1      35.320 -22.726 -17.225  0.00  0.00    -0.149 OA
ATOM      3  O   UNL     1      35.257 -24.858 -15.901  0.00  0.00    -0.149 OA
ENDROOT
BRANCH   1   4
ATOM      4  N   UNL     1      35.560 -22.589 -14.660  0.00  0.00    -0.148 N 
ATOM      5  N   UNL     1      35.764 -23.461 -12.478  0.00  0.00    -0.341 NA
ATOM      6  N   UNL     1      37.505 -23.805 -14.107  0.00  0.00    -0.169 NA
ATOM      7  C   UNL     1      36.322 -23.329 -13.690  0.00  0.00    +0.164 C 
ATOM      8  C   UNL     1      36.504 -24.159 -11.593  0.00  0.00    +0.124 C 
ATOM      9  C   UNL     1      37.738 -24.705 -11.887  0.00  0.00    +0.050 C 
ATOM     10  C   UNL     1      38.193 -24.494 -13.172  0.00  0.00    +0.114 C 
ATOM     11  C   UNL     1      35.930 -24.336 -10.228  0.00  0.00    +0.067 C 
ATOM     12  H   UNL     1      35.406 -21.623 -14.552  0.00  0.00    +0.187 HD
ENDBRANCH   1   4
BRANCH   1  13
ATOM     13  C   UNL     1      33.203 -23.252 -15.823  0.00  0.00    +0.126 C 
ATOM     14  C   UNL     1      32.634 -23.307 -14.550  0.00  0.00    +0.021 C 
ATOM     15  C   UNL     1      32.393 -23.046 -16.940  0.00  0.00    +0.021 C 
ATOM     16  C   UNL     1      30.447 -22.949 -15.511  0.00  0.00    +0.042 C 
ATOM     17  C   UNL     1      31.256 -23.155 -14.395  0.00  0.00    +0.015 C 
ATOM     18  C   UNL     1      31.015 -22.893 -16.785  0.00  0.00    +0.015 C 
BRANCH  16  19
ATOM     19  N   UNL     1      29.054 -22.794 -15.355  0.00  0.00    -0.357 N 
ATOM     20  H   UNL     1      28.488 -23.581 -15.183  0.00  0.00    +0.142 HD
ATOM     21  H   UNL     1      28.648 -21.900 -15.419  0.00  0.00    +0.142 HD
ENDBRANCH  16  19
ENDBRANCH   1  13
TORSDOF 3
ENDMDL
MODEL 9
REMARK VINA RESULT:      -8.0      4.368      5.438
REMARK  Name = 5325
REMARK  3 active torsions:
REMARK  status: ('A' for Active; 'I' for Inactive)
REMARK    1  A    between atoms: S_1  and  N_4
REMARK    2  A    between atoms: S_1  and  C_13
REMARK    3  A    between atoms: C_16  and  N_19
REMARK                            x       y       z     vdW  Elec       q    Type
REMARK                         _______ _______ _______ _____ _____    ______ ____
ROOT
ATOM      1  S   UNL     1      34.692 -23.620 -15.266  0.00  0.00    +0.082 S 
ATOM      2  O   UNL     1      33.269 -23.936 -15.246  0.00  0.00    -0.149 OA
ATOM      3  O   UNL     1      35.248 -22.813 -14.185  0.00  0.00    -0.149 OA
ENDROOT
BRANCH   1   4
ATOM      4  N   UNL     1      35.566 -25.100 -15.388  0.00  0.00    -0.148 N 
ATOM      5  N   UNL     1      37.894 -25.335 -15.089  0.00  0.00    -0.341 NA
ATOM      6  N   UNL     1      36.396 -25.428 -13.204  0.00  0.00    -0.169 NA
ATOM      7  C   UNL     1      36.686 -25.300 -14.507  0.00  0.00    +0.164 C 
ATOM      8  C   UNL     1      38.921 -25.524 -14.235  0.00  0.00    +0.124 C 
ATOM      9  C   UNL     1      38.768 -25.671 -12.871  0.00  0.00    +0.050 C 
ATOM     10  C   UNL     1      37.470 -25.614 -12.407  0.00  0.00    +0.114 C 
ATOM     11  C   UNL     1      40.289 -25.572 -14.830  0.00  0.00    +0.067 C 
ATOM     12  H   UNL     1      35.307 -25.790 -16.041  0.00  0.00    +0.187 HD
ENDBRANCH   1   4
BRANCH   1  13
ATOM     13  C   UNL     1      35.043 -22.837 -16.786  0.00  0.00    +0.126 C 
ATOM     14  C   UNL     1      36.290 -22.249 -16.996  0.00  0.00    +0.021 C 
ATOM     15  C   UNL     1      34.076 -22.800 -17.791  0.00  0.00    +0.021 C 
ATOM     16  C   UNL     1      35.605 -21.586 -19.216  0.00  0.00    +0.042 C 
ATOM     17  C   UNL     1      36.571 -21.623 -18.211  0.00  0.00    +0.015 C 
ATOM     18  C   UNL     1      34.357 -22.175 -19.007  0.00  0.00    +0.015 C 
BRANCH  16  19
ATOM     19  N   UNL     1      35.889 -20.955 -20.444  0.00  0.00    -0.357 N 
ATOM     20  H   UNL     1      36.417 -20.124 -20.460  0.00  0.00    +0.142 HD
ATOM     21  H   UNL     1      35.557 -21.344 -21.286  0.00  0.00    +0.142 HD
ENDBRANCH  16  19
ENDBRANCH   1  13
TORSDOF 3
ENDMDL
