MODEL 1
REMARK VINA RESULT:      -1.6      0.000      0.000
REMARK  Name = 121904
REMARK  4 active torsions:
REMARK  status: ('A' for Active; 'I' for Inactive)
REMARK    1  A    between atoms: C_5  and  O_23
REMARK    2  A    between atoms: C_9  and  O_25
REMARK    3  A    between atoms: C_12  and  O_27
REMARK    4  A    between atoms: C_13  and  C_29
REMARK                            x       y       z     vdW  Elec       q    Type
REMARK                         _______ _______ _______ _____ _____    ______ ____
ROOT
ATOM      1  O   UNL     1      31.939 -10.915 -21.458  0.00  0.00    -0.452 OA
ATOM      2  O   UNL     1      33.641 -15.386 -24.031  0.00  0.00    -0.296 OA
ATOM      3  O   UNL     1      30.496  -9.678 -22.770  0.00  0.00    -0.250 OA
ATOM      4  C   UNL     1      34.416 -11.255 -26.192  0.00  0.00    +0.027 C 
ATOM      5  C   UNL     1      35.204 -10.029 -25.645  0.00  0.00    +0.113 C 
ATOM      6  C   UNL     1      34.792  -9.534 -24.223  0.00  0.00    +0.054 C 
ATOM      7  C   UNL     1      34.568 -12.514 -25.303  0.00  0.00    +0.010 C 
ATOM      8  C   UNL     1      33.229 -13.199 -24.972  0.00  0.00    +0.058 C 
ATOM      9  C   UNL     1      33.265  -9.318 -24.057  0.00  0.00    +0.123 C 
ATOM     10  C   UNL     1      31.533 -13.172 -20.577  0.00  0.00    +0.067 C 
ATOM     11  C   UNL     1      33.424 -13.612 -22.399  0.00  0.00    +0.085 C 
ATOM     12  C   UNL     1      32.103 -14.054 -21.728  0.00  0.00    +0.121 C 
ATOM     13  C   UNL     1      30.902 -11.847 -21.087  0.00  0.00    +0.171 C 
ATOM     14  C   UNL     1      32.837  -9.045 -22.593  0.00  0.00    +0.126 C 
ATOM     15  C   UNL     1      33.448 -14.186 -23.825  0.00  0.00    +0.152 C 
ATOM     16  C   UNL     1      34.855 -11.574 -27.631  0.00  0.00    +0.002 C 
ATOM     17  C   UNL     1      35.587  -8.260 -23.882  0.00  0.00    +0.005 C 
ATOM     18  C   UNL     1      32.609 -13.904 -26.176  0.00  0.00    +0.008 C 
ATOM     19  C   UNL     1      32.533 -12.952 -19.438  0.00  0.00    +0.006 C 
ATOM     20  C   UNL     1      34.713 -14.055 -21.702  0.00  0.00    +0.010 C 
ATOM     21  C   UNL     1      31.605  -9.890 -22.295  0.00  0.00    +0.319 C 
ATOM     22  C   UNL     1      32.515  -7.589 -22.265  0.00  0.00    +0.014 C 
ENDROOT
BRANCH   5  23
ATOM     23  O   UNL     1      36.600 -10.349 -25.602  0.00  0.00    -0.384 OA
ATOM     24  H   UNL     1      36.903 -10.595 -26.490  0.00  0.00    +0.210 HD
ENDBRANCH   5  23
BRANCH   9  25
ATOM     25  O   UNL     1      32.803  -8.278 -24.915  0.00  0.00    -0.384 OA
ATOM     26  H   UNL     1      33.154  -7.427 -24.610  0.00  0.00    +0.210 HD
ENDBRANCH   9  25
BRANCH  12  27
ATOM     27  O   UNL     1      32.270 -15.390 -21.234  0.00  0.00    -0.384 OA
ATOM     28  H   UNL     1      31.757 -16.004 -21.783  0.00  0.00    +0.210 HD
ENDBRANCH  12  27
BRANCH  13  29
ATOM     29  C   UNL     1      30.020 -11.199 -20.016  0.00  0.00    +0.044 C 
ATOM     30  C   UNL     1      30.841 -10.345 -19.072  0.00  0.00    +0.004 C 
ENDBRANCH  13  29
TORSDOF 4
ENDMDL
MODEL 2
REMARK VINA RESULT:      -0.9      1.580      4.830
REMARK  Name = 121904
REMARK  4 active torsions:
REMARK  status: ('A' for Active; 'I' for Inactive)
REMARK    1  A    between atoms: C_5  and  O_23
REMARK    2  A    between atoms: C_9  and  O_25
REMARK    3  A    between atoms: C_12  and  O_27
REMARK    4  A    between atoms: C_13  and  C_29
REMARK                            x       y       z     vdW  Elec       q    Type
REMARK                         _______ _______ _______ _____ _____    ______ ____
ROOT
ATOM      1  O   UNL     1      32.151 -12.346 -21.169  0.00  0.00    -0.452 OA
ATOM      2  O   UNL     1      32.893  -7.568 -23.644  0.00  0.00    -0.296 OA
ATOM      3  O   UNL     1      34.160 -13.401 -20.738  0.00  0.00    -0.250 OA
ATOM      4  C   UNL     1      34.747 -11.371 -25.748  0.00  0.00    +0.027 C 
ATOM      5  C   UNL     1      34.004 -12.657 -26.213  0.00  0.00    +0.113 C 
ATOM      6  C   UNL     1      33.090 -13.339 -25.147  0.00  0.00    +0.054 C 
ATOM      7  C   UNL     1      33.781 -10.242 -25.312  0.00  0.00    +0.010 C 
ATOM      8  C   UNL     1      34.145  -9.610 -23.956  0.00  0.00    +0.058 C 
ATOM      9  C   UNL     1      33.794 -13.579 -23.786  0.00  0.00    +0.123 C 
ATOM     10  C   UNL     1      31.379 -10.228 -20.192  0.00  0.00    +0.067 C 
ATOM     11  C   UNL     1      31.841  -9.544 -22.724  0.00  0.00    +0.085 C 
ATOM     12  C   UNL     1      31.938  -9.199 -21.221  0.00  0.00    +0.121 C 
ATOM     13  C   UNL     1      32.292 -11.474 -20.028  0.00  0.00    +0.171 C 
ATOM     14  C   UNL     1      32.828 -14.045 -22.667  0.00  0.00    +0.126 C 
ATOM     15  C   UNL     1      32.958  -8.785 -23.459  0.00  0.00    +0.152 C 
ATOM     16  C   UNL     1      35.680 -10.862 -26.859  0.00  0.00    +0.002 C 
ATOM     17  C   UNL     1      32.520 -14.645 -25.731  0.00  0.00    +0.005 C 
ATOM     18  C   UNL     1      35.406  -8.753 -24.019  0.00  0.00    +0.008 C 
ATOM     19  C   UNL     1      29.914 -10.596 -20.448  0.00  0.00    +0.006 C 
ATOM     20  C   UNL     1      30.518  -9.196 -23.410  0.00  0.00    +0.010 C 
ATOM     21  C   UNL     1      33.144 -13.251 -21.406  0.00  0.00    +0.319 C 
ATOM     22  C   UNL     1      32.888 -15.534 -22.328  0.00  0.00    +0.014 C 
ENDROOT
BRANCH   5  23
ATOM     23  O   UNL     1      33.184 -12.344 -27.345  0.00  0.00    -0.384 OA
ATOM     24  H   UNL     1      32.739 -11.494 -27.196  0.00  0.00    +0.210 HD
ENDBRANCH   5  23
BRANCH   9  25
ATOM     25  O   UNL     1      34.875 -14.496 -23.927  0.00  0.00    -0.384 OA
ATOM     26  H   UNL     1      35.649 -14.032 -24.280  0.00  0.00    +0.210 HD
ENDBRANCH   9  25
BRANCH  12  27
ATOM     27  O   UNL     1      31.287  -7.941 -21.001  0.00  0.00    -0.384 OA
ATOM     28  H   UNL     1      30.357  -8.094 -20.769  0.00  0.00    +0.210 HD
ENDBRANCH  12  27
BRANCH  13  29
ATOM     29  C   UNL     1      31.940 -12.261 -18.762  0.00  0.00    +0.044 C 
ATOM     30  C   UNL     1      31.419 -11.346 -17.673  0.00  0.00    +0.004 C 
ENDBRANCH  13  29
TORSDOF 4
ENDMDL
MODEL 3
REMARK VINA RESULT:      -0.6      3.622      5.954
REMARK  Name = 121904
REMARK  4 active torsions:
REMARK  status: ('A' for Active; 'I' for Inactive)
REMARK    1  A    between atoms: C_5  and  O_23
REMARK    2  A    between atoms: C_9  and  O_25
REMARK    3  A    between atoms: C_12  and  O_27
REMARK    4  A    between atoms: C_13  and  C_29
REMARK                            x       y       z     vdW  Elec       q    Type
REMARK                         _______ _______ _______ _____ _____    ______ ____
ROOT
ATOM      1  O   UNL     1      33.366 -17.560 -20.990  0.00  0.00    -0.452 OA
ATOM      2  O   UNL     1      35.088 -17.989 -26.124  0.00  0.00    -0.296 OA
ATOM      3  O   UNL     1      31.110 -17.070 -20.888  0.00  0.00    -0.250 OA
ATOM      4  C   UNL     1      32.996 -13.929 -24.907  0.00  0.00    +0.027 C 
ATOM      5  C   UNL     1      33.409 -12.951 -23.770  0.00  0.00    +0.113 C 
ATOM      6  C   UNL     1      33.624 -13.593 -22.364  0.00  0.00    +0.054 C 
ATOM      7  C   UNL     1      34.049 -15.035 -25.162  0.00  0.00    +0.010 C 
ATOM      8  C   UNL     1      33.450 -16.452 -25.232  0.00  0.00    +0.058 C 
ATOM      9  C   UNL     1      32.450 -14.495 -21.904  0.00  0.00    +0.123 C 
ATOM     10  C   UNL     1      34.369 -19.622 -21.870  0.00  0.00    +0.067 C 
ATOM     11  C   UNL     1      35.068 -17.828 -23.709  0.00  0.00    +0.085 C 
ATOM     12  C   UNL     1      34.563 -19.249 -23.371  0.00  0.00    +0.121 C 
ATOM     13  C   UNL     1      33.114 -18.959 -21.239  0.00  0.00    +0.171 C 
ATOM     14  C   UNL     1      32.760 -15.304 -20.620  0.00  0.00    +0.126 C 
ATOM     15  C   UNL     1      34.582 -17.475 -25.124  0.00  0.00    +0.152 C 
ATOM     16  C   UNL     1      32.725 -13.154 -26.208  0.00  0.00    +0.002 C 
ATOM     17  C   UNL     1      33.921 -12.480 -21.340  0.00  0.00    +0.005 C 
ATOM     18  C   UNL     1      32.631 -16.690 -26.498  0.00  0.00    +0.008 C 
ATOM     19  C   UNL     1      35.635 -19.413 -21.032  0.00  0.00    +0.006 C 
ATOM     20  C   UNL     1      36.586 -17.630 -23.680  0.00  0.00    +0.010 C 
ATOM     21  C   UNL     1      32.288 -16.736 -20.836  0.00  0.00    +0.319 C 
ATOM     22  C   UNL     1      32.119 -14.772 -19.340  0.00  0.00    +0.014 C 
ENDROOT
BRANCH   5  23
ATOM     23  O   UNL     1      34.629 -12.294 -24.135  0.00  0.00    -0.384 OA
ATOM     24  H   UNL     1      34.524 -11.335 -24.030  0.00  0.00    +0.210 HD
ENDBRANCH   5  23
BRANCH   9  25
ATOM     25  O   UNL     1      31.258 -13.733 -21.739  0.00  0.00    -0.384 OA
ATOM     26  H   UNL     1      30.879 -13.531 -22.608  0.00  0.00    +0.210 HD
ENDBRANCH   9  25
BRANCH  12  27
ATOM     27  O   UNL     1      35.456 -20.202 -23.962  0.00  0.00    -0.384 OA
ATOM     28  H   UNL     1      36.028 -20.579 -23.276  0.00  0.00    +0.210 HD
ENDBRANCH  12  27
BRANCH  13  29
ATOM     29  C   UNL     1      32.731 -19.632 -19.918  0.00  0.00    +0.044 C 
ATOM     30  C   UNL     1      33.076 -21.106 -19.933  0.00  0.00    +0.004 C 
ENDBRANCH  13  29
TORSDOF 4
ENDMDL
MODEL 4
REMARK VINA RESULT:      -0.5      3.345      7.509
REMARK  Name = 121904
REMARK  4 active torsions:
REMARK  status: ('A' for Active; 'I' for Inactive)
REMARK    1  A    between atoms: C_5  and  O_23
REMARK    2  A    between atoms: C_9  and  O_25
REMARK    3  A    between atoms: C_12  and  O_27
REMARK    4  A    between atoms: C_13  and  C_29
REMARK                            x       y       z     vdW  Elec       q    Type
REMARK                         _______ _______ _______ _____ _____    ______ ____
ROOT
ATOM      1  O   UNL     1      33.817 -14.994 -24.859  0.00  0.00    -0.452 OA
ATOM      2  O   UNL     1      32.085 -14.682 -19.720  0.00  0.00    -0.296 OA
ATOM      3  O   UNL     1      32.723 -16.663 -26.024  0.00  0.00    -0.250 OA
ATOM      4  C   UNL     1      33.751 -18.863 -21.159  0.00  0.00    +0.027 C 
ATOM      5  C   UNL     1      35.158 -19.175 -21.744  0.00  0.00    +0.113 C 
ATOM      6  C   UNL     1      35.624 -18.263 -22.923  0.00  0.00    +0.054 C 
ATOM      7  C   UNL     1      33.642 -17.430 -20.583  0.00  0.00    +0.010 C 
ATOM      8  C   UNL     1      32.395 -16.666 -21.063  0.00  0.00    +0.058 C 
ATOM      9  C   UNL     1      34.578 -18.133 -24.061  0.00  0.00    +0.123 C 
ATOM     10  C   UNL     1      32.801 -12.956 -23.938  0.00  0.00    +0.067 C 
ATOM     11  C   UNL     1      33.377 -14.341 -21.737  0.00  0.00    +0.085 C 
ATOM     12  C   UNL     1      32.391 -13.439 -22.514  0.00  0.00    +0.121 C 
ATOM     13  C   UNL     1      32.710 -14.080 -25.006  0.00  0.00    +0.171 C 
ATOM     14  C   UNL     1      34.943 -17.058 -25.114  0.00  0.00    +0.126 C 
ATOM     15  C   UNL     1      32.566 -15.182 -20.738  0.00  0.00    +0.152 C 
ATOM     16  C   UNL     1      33.382 -19.892 -20.077  0.00  0.00    +0.002 C 
ATOM     17  C   UNL     1      36.979 -18.770 -23.451  0.00  0.00    +0.005 C 
ATOM     18  C   UNL     1      31.100 -17.202 -20.457  0.00  0.00    +0.008 C 
ATOM     19  C   UNL     1      34.148 -12.226 -23.959  0.00  0.00    +0.006 C 
ATOM     20  C   UNL     1      34.472 -13.617 -20.949  0.00  0.00    +0.010 C 
ATOM     21  C   UNL     1      33.694 -16.238 -25.409  0.00  0.00    +0.319 C 
ATOM     22  C   UNL     1      35.491 -17.595 -26.435  0.00  0.00    +0.014 C 
ENDROOT
BRANCH   5  23
ATOM     23  O   UNL     1      36.136 -19.064 -20.703  0.00  0.00    -0.384 OA
ATOM     24  H   UNL     1      36.294 -19.939 -20.314  0.00  0.00    +0.210 HD
ENDBRANCH   5  23
BRANCH   9  25
ATOM     25  O   UNL     1      34.351 -19.392 -24.689  0.00  0.00    -0.384 OA
ATOM     26  H   UNL     1      35.199 -19.836 -24.838  0.00  0.00    +0.210 HD
ENDBRANCH   9  25
BRANCH  12  27
ATOM     27  O   UNL     1      32.102 -12.286 -21.712  0.00  0.00    -0.384 OA
ATOM     28  H   UNL     1      32.418 -12.434 -20.807  0.00  0.00    +0.210 HD
ENDBRANCH  12  27
BRANCH  13  29
ATOM     29  C   UNL     1      32.734 -13.506 -26.426  0.00  0.00    +0.044 C 
ATOM     30  C   UNL     1      34.149 -13.411 -26.956  0.00  0.00    +0.004 C 
ENDBRANCH  13  29
TORSDOF 4
ENDMDL
MODEL 5
REMARK VINA RESULT:      -0.3      2.248      5.599
REMARK  Name = 121904
REMARK  4 active torsions:
REMARK  status: ('A' for Active; 'I' for Inactive)
REMARK    1  A    between atoms: C_5  and  O_23
REMARK    2  A    between atoms: C_9  and  O_25
REMARK    3  A    between atoms: C_12  and  O_27
REMARK    4  A    between atoms: C_13  and  C_29
REMARK                            x       y       z     vdW  Elec       q    Type
REMARK                         _______ _______ _______ _____ _____    ______ ____
ROOT
ATOM      1  O   UNL     1      33.672 -15.660 -22.253  0.00  0.00    -0.452 OA
ATOM      2  O   UNL     1      32.808 -10.307 -22.569  0.00  0.00    -0.296 OA
ATOM      3  O   UNL     1      35.790 -16.223 -22.982  0.00  0.00    -0.250 OA
ATOM      4  C   UNL     1      34.078 -12.501 -26.557  0.00  0.00    +0.027 C 
ATOM      5  C   UNL     1      33.362 -13.694 -27.255  0.00  0.00    +0.113 C 
ATOM      6  C   UNL     1      33.038 -14.921 -26.345  0.00  0.00    +0.054 C 
ATOM      7  C   UNL     1      33.247 -11.895 -25.399  0.00  0.00    +0.010 C 
ATOM      8  C   UNL     1      34.052 -11.701 -24.100  0.00  0.00    +0.058 C 
ATOM      9  C   UNL     1      34.251 -15.422 -25.521  0.00  0.00    +0.123 C 
ATOM     10  C   UNL     1      33.123 -14.300 -20.282  0.00  0.00    +0.067 C 
ATOM     11  C   UNL     1      32.447 -12.683 -22.287  0.00  0.00    +0.085 C 
ATOM     12  C   UNL     1      33.101 -12.869 -20.898  0.00  0.00    +0.121 C 
ATOM     13  C   UNL     1      34.160 -15.235 -20.964  0.00  0.00    +0.171 C 
ATOM     14  C   UNL     1      33.877 -16.487 -24.459  0.00  0.00    +0.126 C 
ATOM     15  C   UNL     1      33.079 -11.448 -22.948  0.00  0.00    +0.152 C 
ATOM     16  C   UNL     1      34.420 -11.409 -27.583  0.00  0.00    +0.002 C 
ATOM     17  C   UNL     1      32.433 -16.044 -27.208  0.00  0.00    +0.005 C 
ATOM     18  C   UNL     1      35.075 -10.572 -24.198  0.00  0.00    +0.008 C 
ATOM     19  C   UNL     1      31.731 -14.932 -20.182  0.00  0.00    +0.006 C 
ATOM     20  C   UNL     1      30.929 -12.484 -22.293  0.00  0.00    +0.010 C 
ATOM     21  C   UNL     1      34.582 -16.127 -23.157  0.00  0.00    +0.319 C 
ATOM     22  C   UNL     1      34.237 -17.927 -24.821  0.00  0.00    +0.014 C 
ENDROOT
BRANCH   5  23
ATOM     23  O   UNL     1      32.125 -13.237 -27.817  0.00  0.00    -0.384 OA
ATOM     24  H   UNL     1      31.594 -14.000 -28.092  0.00  0.00    +0.210 HD
ENDBRANCH   5  23
BRANCH   9  25
ATOM     25  O   UNL     1      35.281 -15.910 -26.377  0.00  0.00    -0.384 OA
ATOM     26  H   UNL     1      35.498 -16.823 -26.134  0.00  0.00    +0.210 HD
ENDBRANCH   9  25
BRANCH  12  27
ATOM     27  O   UNL     1      32.455 -11.988 -19.970  0.00  0.00    -0.384 OA
ATOM     28  H   UNL     1      32.667 -12.261 -19.064  0.00  0.00    +0.210 HD
ENDBRANCH  12  27
BRANCH  13  29
ATOM     29  C   UNL     1      34.439 -16.476 -20.111  0.00  0.00    +0.044 C 
ATOM     30  C   UNL     1      33.912 -17.730 -20.778  0.00  0.00    +0.004 C 
ENDBRANCH  13  29
TORSDOF 4
ENDMDL
MODEL 6
REMARK VINA RESULT:       0.0     11.470     14.500
REMARK  Name = 121904
REMARK  4 active torsions:
REMARK  status: ('A' for Active; 'I' for Inactive)
REMARK    1  A    between atoms: C_5  and  O_23
REMARK    2  A    between atoms: C_9  and  O_25
REMARK    3  A    between atoms: C_12  and  O_27
REMARK    4  A    between atoms: C_13  and  C_29
REMARK                            x       y       z     vdW  Elec       q    Type
REMARK                         _______ _______ _______ _____ _____    ______ ____
ROOT
ATOM      1  O   UNL     1      32.679 -23.095 -16.653  0.00  0.00    -0.452 OA
ATOM      2  O   UNL     1      35.362 -25.395 -12.528  0.00  0.00    -0.296 OA
ATOM      3  O   UNL     1      33.215 -24.083 -18.671  0.00  0.00    -0.250 OA
ATOM      4  C   UNL     1      37.971 -23.662 -16.067  0.00  0.00    +0.027 C 
ATOM      5  C   UNL     1      37.988 -22.204 -16.609  0.00  0.00    +0.113 C 
ATOM      6  C   UNL     1      36.595 -21.589 -16.955  0.00  0.00    +0.054 C 
ATOM      7  C   UNL     1      37.166 -23.806 -14.752  0.00  0.00    +0.010 C 
ATOM      8  C   UNL     1      36.163 -24.975 -14.768  0.00  0.00    +0.058 C 
ATOM      9  C   UNL     1      35.721 -22.495 -17.859  0.00  0.00    +0.123 C 
ATOM     10  C   UNL     1      31.522 -24.167 -14.769  0.00  0.00    +0.067 C 
ATOM     11  C   UNL     1      33.992 -23.874 -13.818  0.00  0.00    +0.085 C 
ATOM     12  C   UNL     1      32.725 -24.747 -13.965  0.00  0.00    +0.121 C 
ATOM     13  C   UNL     1      31.769 -24.159 -16.303  0.00  0.00    +0.171 C 
ATOM     14  C   UNL     1      34.265 -21.990 -18.015  0.00  0.00    +0.126 C 
ATOM     15  C   UNL     1      35.191 -24.811 -13.599  0.00  0.00    +0.152 C 
ATOM     16  C   UNL     1      39.406 -24.173 -15.861  0.00  0.00    +0.002 C 
ATOM     17  C   UNL     1      36.798 -20.193 -17.573  0.00  0.00    +0.005 C 
ATOM     18  C   UNL     1      36.843 -26.341 -14.713  0.00  0.00    +0.008 C 
ATOM     19  C   UNL     1      31.043 -22.812 -14.239  0.00  0.00    +0.006 C 
ATOM     20  C   UNL     1      33.982 -22.862 -12.670  0.00  0.00    +0.010 C 
ATOM     21  C   UNL     1      33.329 -23.181 -17.850  0.00  0.00    +0.319 C 
ATOM     22  C   UNL     1      33.947 -21.306 -19.344  0.00  0.00    +0.014 C 
ENDROOT
BRANCH   5  23
ATOM     23  O   UNL     1      38.607 -21.349 -15.640  0.00  0.00    -0.384 OA
ATOM     24  H   UNL     1      38.919 -21.882 -14.892  0.00  0.00    +0.210 HD
ENDBRANCH   5  23
BRANCH   9  25
ATOM     25  O   UNL     1      36.327 -22.675 -19.136  0.00  0.00    -0.384 OA
ATOM     26  H   UNL     1      37.273 -22.472 -19.077  0.00  0.00    +0.210 HD
ENDBRANCH   9  25
BRANCH  12  27
ATOM     27  O   UNL     1      32.263 -25.102 -12.655  0.00  0.00    -0.384 OA
ATOM     28  H   UNL     1      32.596 -24.459 -12.009  0.00  0.00    +0.210 HD
ENDBRANCH  12  27
BRANCH  13  29
ATOM     29  C   UNL     1      30.463 -23.962 -17.078  0.00  0.00    +0.044 C 
ATOM     30  C   UNL     1      29.287 -24.558 -16.332  0.00  0.00    +0.004 C 
ENDBRANCH  13  29
TORSDOF 4
ENDMDL
MODEL 7
REMARK VINA RESULT:       0.3      2.136      6.661
REMARK  Name = 121904
REMARK  4 active torsions:
REMARK  status: ('A' for Active; 'I' for Inactive)
REMARK    1  A    between atoms: C_5  and  O_23
REMARK    2  A    between atoms: C_9  and  O_25
REMARK    3  A    between atoms: C_12  and  O_27
REMARK    4  A    between atoms: C_13  and  C_29
REMARK                            x       y       z     vdW  Elec       q    Type
REMARK                         _______ _______ _______ _____ _____    ______ ____
ROOT
ATOM      1  O   UNL     1      33.511 -11.036 -23.474  0.00  0.00    -0.452 OA
ATOM      2  O   UNL     1      33.730  -5.792 -24.873  0.00  0.00    -0.296 OA
ATOM      3  O   UNL     1      31.335 -11.807 -23.407  0.00  0.00    -0.250 OA
ATOM      4  C   UNL     1      31.097  -6.886 -21.105  0.00  0.00    +0.027 C 
ATOM      5  C   UNL     1      31.551  -7.616 -19.808  0.00  0.00    +0.113 C 
ATOM      6  C   UNL     1      32.322  -8.958 -20.016  0.00  0.00    +0.054 C 
ATOM      7  C   UNL     1      32.282  -6.494 -22.021  0.00  0.00    +0.010 C 
ATOM      8  C   UNL     1      32.079  -6.892 -23.495  0.00  0.00    +0.058 C 
ATOM      9  C   UNL     1      31.607  -9.945 -20.974  0.00  0.00    +0.123 C 
ATOM     10  C   UNL     1      34.719 -10.258 -25.467  0.00  0.00    +0.067 C 
ATOM     11  C   UNL     1      34.366  -7.997 -24.106  0.00  0.00    +0.085 C 
ATOM     12  C   UNL     1      34.368  -8.740 -25.461  0.00  0.00    +0.121 C 
ATOM     13  C   UNL     1      33.572 -11.146 -24.912  0.00  0.00    +0.171 C 
ATOM     14  C   UNL     1      32.473 -11.172 -21.354  0.00  0.00    +0.126 C 
ATOM     15  C   UNL     1      33.419  -6.792 -24.225  0.00  0.00    +0.152 C 
ATOM     16  C   UNL     1      30.271  -5.637 -20.754  0.00  0.00    +0.002 C 
ATOM     17  C   UNL     1      32.601  -9.598 -18.643  0.00  0.00    +0.005 C 
ATOM     18  C   UNL     1      31.021  -6.045 -24.198  0.00  0.00    +0.008 C 
ATOM     19  C   UNL     1      36.072 -10.563 -24.817  0.00  0.00    +0.006 C 
ATOM     20  C   UNL     1      35.722  -7.471 -23.626  0.00  0.00    +0.010 C 
ATOM     21  C   UNL     1      32.349 -11.394 -22.856  0.00  0.00    +0.319 C 
ATOM     22  C   UNL     1      32.113 -12.474 -20.641  0.00  0.00    +0.014 C 
ENDROOT
BRANCH   5  23
ATOM     23  O   UNL     1      32.399  -6.745 -19.050  0.00  0.00    -0.384 OA
ATOM     24  H   UNL     1      32.000  -5.862 -19.006  0.00  0.00    +0.210 HD
ENDBRANCH   5  23
BRANCH   9  25
ATOM     25  O   UNL     1      30.357 -10.364 -20.433  0.00  0.00    -0.384 OA
ATOM     26  H   UNL     1      30.220 -11.305 -20.624  0.00  0.00    +0.210 HD
ENDBRANCH   9  25
BRANCH  12  27
ATOM     27  O   UNL     1      35.268  -8.064 -26.349  0.00  0.00    -0.384 OA
ATOM     28  H   UNL     1      34.767  -7.459 -26.919  0.00  0.00    +0.210 HD
ENDBRANCH  12  27
BRANCH  13  29
ATOM     29  C   UNL     1      33.774 -12.618 -25.283  0.00  0.00    +0.044 C 
ATOM     30  C   UNL     1      33.383 -12.879 -26.723  0.00  0.00    +0.004 C 
ENDBRANCH  13  29
TORSDOF 4
ENDMDL
MODEL 8
REMARK VINA RESULT:       0.7     12.477     15.538
REMARK  Name = 121904
REMARK  4 active torsions:
REMARK  status: ('A' for Active; 'I' for Inactive)
REMARK    1  A    between atoms: C_5  and  O_23
REMARK    2  A    between atoms: C_9  and  O_25
REMARK    3  A    between atoms: C_12  and  O_27
REMARK    4  A    between atoms: C_13  and  C_29
REMARK                            x       y       z     vdW  Elec       q    Type
REMARK                         _______ _______ _______ _____ _____    ______ ____
ROOT
ATOM      1  O   UNL     1      33.026 -23.923 -13.830  0.00  0.00    -0.452 OA
ATOM      2  O   UNL     1      35.012 -22.314 -18.623  0.00  0.00    -0.296 OA
ATOM      3  O   UNL     1      33.887 -22.672 -12.090  0.00  0.00    -0.250 OA
ATOM      4  C   UNL     1      38.154 -23.594 -15.333  0.00  0.00    +0.027 C 
ATOM      5  C   UNL     1      38.252 -24.960 -14.594  0.00  0.00    +0.113 C 
ATOM      6  C   UNL     1      36.932 -25.480 -13.944  0.00  0.00    +0.054 C 
ATOM      7  C   UNL     1      37.146 -23.618 -16.509  0.00  0.00    +0.010 C 
ATOM      8  C   UNL     1      36.165 -22.431 -16.503  0.00  0.00    +0.058 C 
ATOM      9  C   UNL     1      36.220 -24.429 -13.052  0.00  0.00    +0.123 C 
ATOM     10  C   UNL     1      31.582 -23.100 -15.640  0.00  0.00    +0.067 C 
ATOM     11  C   UNL     1      33.864 -23.595 -16.921  0.00  0.00    +0.085 C 
ATOM     12  C   UNL     1      32.641 -22.675 -16.702  0.00  0.00    +0.121 C 
ATOM     13  C   UNL     1      32.075 -22.895 -14.181  0.00  0.00    +0.171 C 
ATOM     14  C   UNL     1      34.807 -24.866 -12.593  0.00  0.00    +0.126 C 
ATOM     15  C   UNL     1      35.015 -22.734 -17.464  0.00  0.00    +0.152 C 
ATOM     16  C   UNL     1      39.539 -23.159 -15.839  0.00  0.00    +0.002 C 
ATOM     17  C   UNL     1      37.226 -26.778 -13.168  0.00  0.00    +0.005 C 
ATOM     18  C   UNL     1      36.832 -21.107 -16.865  0.00  0.00    +0.008 C 
ATOM     19  C   UNL     1      31.018 -24.503 -15.883  0.00  0.00    +0.006 C 
ATOM     20  C   UNL     1      33.662 -24.761 -17.893  0.00  0.00    +0.010 C 
ATOM     21  C   UNL     1      33.862 -23.685 -12.778  0.00  0.00    +0.319 C 
ATOM     22  C   UNL     1      34.707 -25.343 -11.145  0.00  0.00    +0.014 C 
ENDROOT
BRANCH   5  23
ATOM     23  O   UNL     1      38.702 -25.962 -15.514  0.00  0.00    -0.384 OA
ATOM     24  H   UNL     1      38.651 -25.615 -16.419  0.00  0.00    +0.210 HD
ENDBRANCH   5  23
BRANCH   9  25
ATOM     25  O   UNL     1      37.027 -24.086 -11.929  0.00  0.00    -0.384 OA
ATOM     26  H   UNL     1      36.466 -23.730 -11.224  0.00  0.00    +0.210 HD
ENDBRANCH   9  25
BRANCH  12  27
ATOM     27  O   UNL     1      31.974 -22.499 -17.959  0.00  0.00    -0.384 OA
ATOM     28  H   UNL     1      31.152 -23.015 -17.965  0.00  0.00    +0.210 HD
ENDBRANCH  12  27
BRANCH  13  29
ATOM     29  C   UNL     1      30.912 -22.942 -13.186  0.00  0.00    +0.044 C 
ATOM     30  C   UNL     1      30.497 -24.370 -12.894  0.00  0.00    +0.004 C 
ENDBRANCH  13  29
TORSDOF 4
ENDMDL
MODEL 9
REMARK VINA RESULT:       1.4      3.877      7.697
REMARK  Name = 121904
REMARK  4 active torsions:
REMARK  status: ('A' for Active; 'I' for Inactive)
REMARK    1  A    between atoms: C_5  and  O_23
REMARK    2  A    between atoms: C_9  and  O_25
REMARK    3  A    between atoms: C_12  and  O_27
REMARK    4  A    between atoms: C_13  and  C_29
REMARK                            x       y       z     vdW  Elec       q    Type
REMARK                         _______ _______ _______ _____ _____    ______ ____
ROOT
ATOM      1  O   UNL     1      33.882  -7.251 -25.525  0.00  0.00    -0.452 OA
ATOM      2  O   UNL     1      31.009  -6.930 -20.927  0.00  0.00    -0.296 OA
ATOM      3  O   UNL     1      35.637  -5.748 -25.537  0.00  0.00    -0.250 OA
ATOM      4  C   UNL     1      31.477  -2.950 -23.431  0.00  0.00    +0.027 C 
ATOM      5  C   UNL     1      31.065  -2.705 -24.911  0.00  0.00    +0.113 C 
ATOM      6  C   UNL     1      31.581  -3.754 -25.946  0.00  0.00    +0.054 C 
ATOM      7  C   UNL     1      30.959  -4.301 -22.878  0.00  0.00    +0.010 C 
ATOM      8  C   UNL     1      32.042  -5.127 -22.159  0.00  0.00    +0.058 C 
ATOM      9  C   UNL     1      33.104  -4.032 -25.844  0.00  0.00    +0.123 C 
ATOM     10  C   UNL     1      33.614  -9.165 -24.009  0.00  0.00    +0.067 C 
ATOM     11  C   UNL     1      31.701  -7.512 -23.171  0.00  0.00    +0.085 C 
ATOM     12  C   UNL     1      32.831  -8.510 -22.831  0.00  0.00    +0.121 C 
ATOM     13  C   UNL     1      34.604  -8.184 -24.695  0.00  0.00    +0.171 C 
ATOM     14  C   UNL     1      33.571  -5.228 -26.710  0.00  0.00    +0.126 C 
ATOM     15  C   UNL     1      31.534  -6.558 -21.977  0.00  0.00    +0.152 C 
ATOM     16  C   UNL     1      30.985  -1.797 -22.541  0.00  0.00    +0.002 C 
ATOM     17  C   UNL     1      31.178  -3.308 -27.363  0.00  0.00    +0.005 C 
ATOM     18  C   UNL     1      32.452  -4.529 -20.816  0.00  0.00    +0.008 C 
ATOM     19  C   UNL     1      32.703  -9.883 -25.009  0.00  0.00    +0.006 C 
ATOM     20  C   UNL     1      30.330  -8.125 -23.467  0.00  0.00    +0.010 C 
ATOM     21  C   UNL     1      34.506  -6.087 -25.868  0.00  0.00    +0.319 C 
ATOM     22  C   UNL     1      34.291  -4.857 -28.006  0.00  0.00    +0.014 C 
ENDROOT
BRANCH   5  23
ATOM     23  O   UNL     1      29.635  -2.678 -25.004  0.00  0.00    -0.384 OA
ATOM     24  H   UNL     1      29.285  -2.005 -24.399  0.00  0.00    +0.210 HD
ENDBRANCH   5  23
BRANCH   9  25
ATOM     25  O   UNL     1      33.855  -2.863 -26.158  0.00  0.00    -0.384 OA
ATOM     26  H   UNL     1      33.921  -2.768 -27.120  0.00  0.00    +0.210 HD
ENDBRANCH   9  25
BRANCH  12  27
ATOM     27  O   UNL     1      32.284  -9.556 -22.016  0.00  0.00    -0.384 OA
ATOM     28  H   UNL     1      32.879 -10.322 -22.029  0.00  0.00    +0.210 HD
ENDBRANCH  12  27
BRANCH  13  29
ATOM     29  C   UNL     1      35.620  -8.931 -25.564  0.00  0.00    +0.044 C 
ATOM     30  C   UNL     1      35.388 -10.427 -25.516  0.00  0.00    +0.004 C 
ENDBRANCH  13  29
TORSDOF 4
ENDMDL
