MODEL 1
REMARK VINA RESULT:     -11.4      0.000      0.000
REMARK  Name = 9963057
REMARK  12 active torsions:
REMARK  status: ('A' for Active; 'I' for Inactive)
REMARK    1  A    between atoms: N_1  and  C_4
REMARK    2  A    between atoms: N_1  and  C_21
REMARK    3  A    between atoms: C_12  and  O_14
REMARK    4  A    between atoms: O_14  and  C_15
REMARK    5  A    between atoms: C_15  and  C_18
REMARK    6  A    between atoms: C_21  and  C_22
REMARK    7  A    between atoms: C_22  and  C_23
REMARK    8  A    between atoms: C_22  and  O_35
REMARK    9  A    between atoms: C_26  and  C_31
REMARK   10  A    between atoms: C_28  and  O_29
REMARK   11  A    between atoms: C_31  and  C_32
REMARK   12  A    between atoms: C_32  and  O_33
REMARK                            x       y       z     vdW  Elec       q    Type
REMARK                         _______ _______ _______ _____ _____    ______ ____
ROOT
ATOM      1  N   UNL     1      33.059 -22.746 -18.540  0.00  0.00    +0.387 N 
ATOM      2  H   UNL     1      32.949 -23.399 -19.315  0.00  0.00    -0.084 HD
ATOM      3  H   UNL     1      32.159 -22.334 -18.292  0.00  0.00    -0.084 HD
ENDROOT
BRANCH   1   4
ATOM      4  C   UNL     1      33.969 -21.673 -18.942  0.00  0.00    -0.057 C 
ATOM      5  C   UNL     1      35.272 -22.265 -19.483  0.00  0.00    -0.016 C 
ATOM      6  C   UNL     1      33.313 -20.788 -20.010  0.00  0.00    +0.005 C 
ATOM      7  C   UNL     1      36.270 -21.152 -19.800  0.00  0.00    +0.024 C 
ATOM      8  C   UNL     1      34.277 -19.817 -20.647  0.00  0.00    -0.025 C 
ATOM      9  C   UNL     1      35.669 -20.011 -20.582  0.00  0.00    -0.026 C 
ATOM     10  C   UNL     1      33.768 -18.727 -21.370  0.00  0.00    +0.032 C 
ATOM     11  C   UNL     1      36.523 -19.094 -21.211  0.00  0.00    -0.001 C 
ATOM     12  C   UNL     1      34.628 -17.827 -22.000  0.00  0.00    +0.139 C 
ATOM     13  C   UNL     1      36.005 -18.009 -21.917  0.00  0.00    +0.037 C 
BRANCH  12  14
ATOM     14  O   UNL     1      34.120 -16.772 -22.693  0.00  0.00    -0.466 OA
BRANCH  14  15
ATOM     15  C   UNL     1      34.997 -16.110 -23.602  0.00  0.00    +0.290 C 
BRANCH  15  18
ATOM     16  O   UNL     1      34.607 -16.888 -25.806  0.00  0.00    -0.271 OA
ATOM     17  N   UNL     1      33.471 -14.958 -25.194  0.00  0.00    -0.273 N 
ATOM     18  C   UNL     1      34.346 -16.021 -24.967  0.00  0.00    +0.270 C 
ATOM     19  C   UNL     1      32.813 -14.835 -26.488  0.00  0.00    +0.115 C 
ATOM     20  C   UNL     1      33.127 -13.923 -24.222  0.00  0.00    +0.115 C 
ENDBRANCH  15  18
ENDBRANCH  14  15
ENDBRANCH  12  14
ENDBRANCH   1   4
BRANCH   1  21
ATOM     21  C   UNL     1      33.582 -23.458 -17.384  0.00  0.00    -0.047 C 
BRANCH  21  22
ATOM     22  C   UNL     1      33.055 -22.844 -16.081  0.00  0.00    +0.112 C 
BRANCH  22  23
ATOM     23  C   UNL     1      31.815 -23.561 -15.593  0.00  0.00    +0.002 C 
ATOM     24  C   UNL     1      30.587 -23.329 -16.213  0.00  0.00    -0.003 C 
ATOM     25  C   UNL     1      31.900 -24.453 -14.525  0.00  0.00    +0.001 C 
ATOM     26  C   UNL     1      29.444 -23.990 -15.763  0.00  0.00    +0.014 C 
ATOM     27  C   UNL     1      30.757 -25.113 -14.074  0.00  0.00    +0.036 C 
ATOM     28  C   UNL     1      29.529 -24.881 -14.693  0.00  0.00    +0.130 C 
BRANCH  28  29
ATOM     29  O   UNL     1      28.422 -25.535 -14.242  0.00  0.00    -0.506 OA
ATOM     30  H   UNL     1      28.476 -26.440 -14.003  0.00  0.00    +0.292 HD
ENDBRANCH  28  29
BRANCH  26  31
ATOM     31  C   UNL     1      28.137 -23.730 -16.437  0.00  0.00    +0.061 C 
BRANCH  31  32
ATOM     32  C   UNL     1      27.459 -22.447 -15.948  0.00  0.00    +0.142 C 
BRANCH  32  33
ATOM     33  O   UNL     1      27.257 -21.567 -17.046  0.00  0.00    -0.382 OA
ATOM     34  H   UNL     1      27.773 -20.756 -16.910  0.00  0.00    +0.210 HD
ENDBRANCH  32  33
ENDBRANCH  31  32
ENDBRANCH  26  31
ENDBRANCH  22  23
BRANCH  22  35
ATOM     35  O   UNL     1      34.047 -22.923 -15.059  0.00  0.00    -0.382 OA
ATOM     36  H   UNL     1      34.023 -23.803 -14.652  0.00  0.00    +0.211 HD
ENDBRANCH  22  35
ENDBRANCH  21  22
ENDBRANCH   1  21
TORSDOF 12
ENDMDL
MODEL 2
REMARK VINA RESULT:     -11.0      2.708     10.773
REMARK  Name = 9963057
REMARK  12 active torsions:
REMARK  status: ('A' for Active; 'I' for Inactive)
REMARK    1  A    between atoms: N_1  and  C_4
REMARK    2  A    between atoms: N_1  and  C_21
REMARK    3  A    between atoms: C_12  and  O_14
REMARK    4  A    between atoms: O_14  and  C_15
REMARK    5  A    between atoms: C_15  and  C_18
REMARK    6  A    between atoms: C_21  and  C_22
REMARK    7  A    between atoms: C_22  and  C_23
REMARK    8  A    between atoms: C_22  and  O_35
REMARK    9  A    between atoms: C_26  and  C_31
REMARK   10  A    between atoms: C_28  and  O_29
REMARK   11  A    between atoms: C_31  and  C_32
REMARK   12  A    between atoms: C_32  and  O_33
REMARK                            x       y       z     vdW  Elec       q    Type
REMARK                         _______ _______ _______ _____ _____    ______ ____
ROOT
ATOM      1  N   UNL     1      34.972 -17.656 -23.013  0.00  0.00    +0.387 N 
ATOM      2  H   UNL     1      34.595 -17.919 -23.923  0.00  0.00    -0.084 HD
ATOM      3  H   UNL     1      35.836 -17.124 -23.126  0.00  0.00    -0.084 HD
ENDROOT
BRANCH   1   4
ATOM      4  C   UNL     1      35.265 -18.868 -22.248  0.00  0.00    -0.057 C 
ATOM      5  C   UNL     1      36.482 -18.640 -21.350  0.00  0.00    -0.016 C 
ATOM      6  C   UNL     1      34.054 -19.269 -21.396  0.00  0.00    +0.005 C 
ATOM      7  C   UNL     1      36.863 -19.935 -20.632  0.00  0.00    +0.024 C 
ATOM      8  C   UNL     1      34.366 -20.360 -20.400  0.00  0.00    -0.025 C 
ATOM      9  C   UNL     1      35.687 -20.645 -20.010  0.00  0.00    -0.026 C 
ATOM     10  C   UNL     1      33.306 -21.064 -19.808  0.00  0.00    +0.032 C 
ATOM     11  C   UNL     1      35.924 -21.652 -19.063  0.00  0.00    -0.001 C 
ATOM     12  C   UNL     1      33.554 -22.056 -18.859  0.00  0.00    +0.139 C 
ATOM     13  C   UNL     1      34.863 -22.351 -18.490  0.00  0.00    +0.037 C 
BRANCH  12  14
ATOM     14  O   UNL     1      32.518 -22.734 -18.296  0.00  0.00    -0.466 OA
BRANCH  14  15
ATOM     15  C   UNL     1      32.685 -23.176 -16.950  0.00  0.00    +0.290 C 
BRANCH  15  18
ATOM     16  O   UNL     1      30.368 -22.700 -16.815  0.00  0.00    -0.271 OA
ATOM     17  N   UNL     1      31.275 -23.853 -15.015  0.00  0.00    -0.273 N 
ATOM     18  C   UNL     1      31.340 -23.217 -16.256  0.00  0.00    +0.270 C 
ATOM     19  C   UNL     1      30.001 -23.925 -14.313  0.00  0.00    +0.115 C 
ATOM     20  C   UNL     1      32.399 -24.487 -14.330  0.00  0.00    +0.115 C 
ENDBRANCH  15  18
ENDBRANCH  14  15
ENDBRANCH  12  14
ENDBRANCH   1   4
BRANCH   1  21
ATOM     21  C   UNL     1      34.002 -16.827 -22.314  0.00  0.00    -0.047 C 
BRANCH  21  22
ATOM     22  C   UNL     1      34.665 -15.562 -21.757  0.00  0.00    +0.112 C 
BRANCH  22  23
ATOM     23  C   UNL     1      33.804 -14.339 -21.983  0.00  0.00    +0.002 C 
ATOM     24  C   UNL     1      34.051 -13.505 -23.073  0.00  0.00    -0.003 C 
ATOM     25  C   UNL     1      32.763 -14.047 -21.102  0.00  0.00    +0.001 C 
ATOM     26  C   UNL     1      33.256 -12.377 -23.281  0.00  0.00    +0.014 C 
ATOM     27  C   UNL     1      31.970 -12.919 -21.309  0.00  0.00    +0.036 C 
ATOM     28  C   UNL     1      32.216 -12.084 -22.398  0.00  0.00    +0.130 C 
BRANCH  28  29
ATOM     29  O   UNL     1      31.431 -10.987 -22.588  0.00  0.00    -0.506 OA
ATOM     30  H   UNL     1      31.453 -10.529 -23.406  0.00  0.00    +0.292 HD
ENDBRANCH  28  29
BRANCH  26  31
ATOM     31  C   UNL     1      33.533 -11.494 -24.452  0.00  0.00    +0.061 C 
BRANCH  31  32
ATOM     32  C   UNL     1      34.099 -10.130 -24.049  0.00  0.00    +0.142 C 
BRANCH  32  33
ATOM     33  O   UNL     1      35.514 -10.138 -24.197  0.00  0.00    -0.382 OA
ATOM     34  H   UNL     1      35.741 -10.354 -25.116  0.00  0.00    +0.210 HD
ENDBRANCH  32  33
ENDBRANCH  31  32
ENDBRANCH  26  31
ENDBRANCH  22  23
BRANCH  22  35
ATOM     35  O   UNL     1      34.891 -15.697 -20.355  0.00  0.00    -0.382 OA
ATOM     36  H   UNL     1      34.298 -15.099 -19.874  0.00  0.00    +0.211 HD
ENDBRANCH  22  35
ENDBRANCH  21  22
ENDBRANCH   1  21
TORSDOF 12
ENDMDL
MODEL 3
REMARK VINA RESULT:     -10.9      4.306      8.073
REMARK  Name = 9963057
REMARK  12 active torsions:
REMARK  status: ('A' for Active; 'I' for Inactive)
REMARK    1  A    between atoms: N_1  and  C_4
REMARK    2  A    between atoms: N_1  and  C_21
REMARK    3  A    between atoms: C_12  and  O_14
REMARK    4  A    between atoms: O_14  and  C_15
REMARK    5  A    between atoms: C_15  and  C_18
REMARK    6  A    between atoms: C_21  and  C_22
REMARK    7  A    between atoms: C_22  and  C_23
REMARK    8  A    between atoms: C_22  and  O_35
REMARK    9  A    between atoms: C_26  and  C_31
REMARK   10  A    between atoms: C_28  and  O_29
REMARK   11  A    between atoms: C_31  and  C_32
REMARK   12  A    between atoms: C_32  and  O_33
REMARK                            x       y       z     vdW  Elec       q    Type
REMARK                         _______ _______ _______ _____ _____    ______ ____
ROOT
ATOM      1  N   UNL     1      34.918 -16.554 -23.197  0.00  0.00    +0.387 N 
ATOM      2  H   UNL     1      35.546 -15.945 -23.720  0.00  0.00    -0.084 HD
ATOM      3  H   UNL     1      34.474 -17.228 -23.823  0.00  0.00    -0.084 HD
ENDROOT
BRANCH   1   4
ATOM      4  C   UNL     1      33.876 -15.744 -22.568  0.00  0.00    -0.057 C 
ATOM      5  C   UNL     1      34.085 -15.703 -21.053  0.00  0.00    -0.016 C 
ATOM      6  C   UNL     1      33.889 -14.319 -23.137  0.00  0.00    +0.005 C 
ATOM      7  C   UNL     1      32.937 -14.952 -20.378  0.00  0.00    +0.024 C 
ATOM      8  C   UNL     1      33.012 -13.365 -22.364  0.00  0.00    -0.025 C 
ATOM      9  C   UNL     1      32.598 -13.645 -21.049  0.00  0.00    -0.026 C 
ATOM     10  C   UNL     1      32.650 -12.143 -22.953  0.00  0.00    +0.032 C 
ATOM     11  C   UNL     1      31.802 -12.715 -20.364  0.00  0.00    -0.001 C 
ATOM     12  C   UNL     1      31.868 -11.221 -22.257  0.00  0.00    +0.139 C 
ATOM     13  C   UNL     1      31.442 -11.510 -20.964  0.00  0.00    +0.037 C 
BRANCH  12  14
ATOM     14  O   UNL     1      31.522 -10.043 -22.842  0.00  0.00    -0.466 OA
BRANCH  14  15
ATOM     15  C   UNL     1      32.478  -8.987 -22.791  0.00  0.00    +0.290 C 
BRANCH  15  18
ATOM     16  O   UNL     1      31.979  -7.782 -20.812  0.00  0.00    -0.271 OA
ATOM     17  N   UNL     1      31.296  -6.797 -22.801  0.00  0.00    -0.273 N 
ATOM     18  C   UNL     1      31.894  -7.805 -22.044  0.00  0.00    +0.270 C 
ATOM     19  C   UNL     1      30.728  -5.637 -22.128  0.00  0.00    +0.115 C 
ATOM     20  C   UNL     1      31.190  -6.783 -24.258  0.00  0.00    +0.115 C 
ENDBRANCH  15  18
ENDBRANCH  14  15
ENDBRANCH  12  14
ENDBRANCH   1   4
BRANCH   1  21
ATOM     21  C   UNL     1      35.681 -17.281 -22.195  0.00  0.00    -0.047 C 
BRANCH  21  22
ATOM     22  C   UNL     1      35.695 -18.783 -22.502  0.00  0.00    +0.112 C 
BRANCH  22  23
ATOM     23  C   UNL     1      34.876 -19.562 -21.496  0.00  0.00    +0.002 C 
ATOM     24  C   UNL     1      35.510 -20.417 -20.595  0.00  0.00    -0.003 C 
ATOM     25  C   UNL     1      33.488 -19.425 -21.469  0.00  0.00    +0.001 C 
ATOM     26  C   UNL     1      34.756 -21.135 -19.666  0.00  0.00    +0.014 C 
ATOM     27  C   UNL     1      32.734 -20.144 -20.543  0.00  0.00    +0.036 C 
ATOM     28  C   UNL     1      33.368 -20.999 -19.642  0.00  0.00    +0.130 C 
BRANCH  28  29
ATOM     29  O   UNL     1      32.616 -21.693 -18.741  0.00  0.00    -0.506 OA
ATOM     30  H   UNL     1      33.034 -22.231 -18.097  0.00  0.00    +0.292 HD
ENDBRANCH  28  29
BRANCH  26  31
ATOM     31  C   UNL     1      35.450 -22.046 -18.709  0.00  0.00    +0.061 C 
BRANCH  31  32
ATOM     32  C   UNL     1      36.885 -21.608 -18.404  0.00  0.00    +0.142 C 
BRANCH  32  33
ATOM     33  O   UNL     1      36.908 -20.857 -17.197  0.00  0.00    -0.382 OA
ATOM     34  H   UNL     1      37.365 -21.365 -16.508  0.00  0.00    +0.210 HD
ENDBRANCH  32  33
ENDBRANCH  31  32
ENDBRANCH  26  31
ENDBRANCH  22  23
BRANCH  22  35
ATOM     35  O   UNL     1      35.156 -19.028 -23.801  0.00  0.00    -0.382 OA
ATOM     36  H   UNL     1      34.514 -19.753 -23.752  0.00  0.00    +0.211 HD
ENDBRANCH  22  35
ENDBRANCH  21  22
ENDBRANCH   1  21
TORSDOF 12
ENDMDL
MODEL 4
REMARK VINA RESULT:     -10.7      3.779     10.955
REMARK  Name = 9963057
REMARK  12 active torsions:
REMARK  status: ('A' for Active; 'I' for Inactive)
REMARK    1  A    between atoms: N_1  and  C_4
REMARK    2  A    between atoms: N_1  and  C_21
REMARK    3  A    between atoms: C_12  and  O_14
REMARK    4  A    between atoms: O_14  and  C_15
REMARK    5  A    between atoms: C_15  and  C_18
REMARK    6  A    between atoms: C_21  and  C_22
REMARK    7  A    between atoms: C_22  and  C_23
REMARK    8  A    between atoms: C_22  and  O_35
REMARK    9  A    between atoms: C_26  and  C_31
REMARK   10  A    between atoms: C_28  and  O_29
REMARK   11  A    between atoms: C_31  and  C_32
REMARK   12  A    between atoms: C_32  and  O_33
REMARK                            x       y       z     vdW  Elec       q    Type
REMARK                         _______ _______ _______ _____ _____    ______ ____
ROOT
ATOM      1  N   UNL     1      36.028 -20.891 -20.454  0.00  0.00    +0.387 N 
ATOM      2  H   UNL     1      36.307 -21.719 -20.981  0.00  0.00    -0.084 HD
ATOM      3  H   UNL     1      36.850 -20.357 -20.172  0.00  0.00    -0.084 HD
ENDROOT
BRANCH   1   4
ATOM      4  C   UNL     1      35.305 -21.309 -19.253  0.00  0.00    -0.057 C 
ATOM      5  C   UNL     1      34.399 -22.500 -19.573  0.00  0.00    -0.016 C 
ATOM      6  C   UNL     1      36.290 -21.685 -18.139  0.00  0.00    +0.005 C 
ATOM      7  C   UNL     1      33.557 -22.869 -18.352  0.00  0.00    +0.024 C 
ATOM      8  C   UNL     1      35.624 -22.355 -16.962  0.00  0.00    -0.025 C 
ATOM      9  C   UNL     1      34.354 -22.949 -17.075  0.00  0.00    -0.026 C 
ATOM     10  C   UNL     1      36.317 -22.438 -15.744  0.00  0.00    +0.032 C 
ATOM     11  C   UNL     1      33.788 -23.582 -15.958  0.00  0.00    -0.001 C 
ATOM     12  C   UNL     1      35.748 -23.079 -14.644  0.00  0.00    +0.139 C 
ATOM     13  C   UNL     1      34.482 -23.649 -14.751  0.00  0.00    +0.037 C 
BRANCH  12  14
ATOM     14  O   UNL     1      36.428 -23.148 -13.468  0.00  0.00    -0.466 OA
BRANCH  14  15
ATOM     15  C   UNL     1      36.775 -24.448 -12.994  0.00  0.00    +0.290 C 
BRANCH  15  18
ATOM     16  O   UNL     1      39.017 -23.987 -12.381  0.00  0.00    -0.271 OA
ATOM     17  N   UNL     1      38.725 -25.591 -14.034  0.00  0.00    -0.273 N 
ATOM     18  C   UNL     1      38.272 -24.650 -13.108  0.00  0.00    +0.270 C 
ATOM     19  C   UNL     1      40.156 -25.826 -14.174  0.00  0.00    +0.115 C 
ATOM     20  C   UNL     1      37.875 -26.403 -14.901  0.00  0.00    +0.115 C 
ENDBRANCH  15  18
ENDBRANCH  14  15
ENDBRANCH  12  14
ENDBRANCH   1   4
BRANCH   1  21
ATOM     21  C   UNL     1      35.189 -20.050 -21.294  0.00  0.00    -0.047 C 
BRANCH  21  22
ATOM     22  C   UNL     1      35.854 -18.690 -21.540  0.00  0.00    +0.112 C 
BRANCH  22  23
ATOM     23  C   UNL     1      35.284 -18.008 -22.764  0.00  0.00    +0.002 C 
ATOM     24  C   UNL     1      34.937 -16.659 -22.712  0.00  0.00    -0.003 C 
ATOM     25  C   UNL     1      35.104 -18.730 -23.945  0.00  0.00    +0.001 C 
ATOM     26  C   UNL     1      34.412 -16.030 -23.841  0.00  0.00    +0.014 C 
ATOM     27  C   UNL     1      34.578 -18.102 -25.073  0.00  0.00    +0.036 C 
ATOM     28  C   UNL     1      34.231 -16.752 -25.021  0.00  0.00    +0.130 C 
BRANCH  28  29
ATOM     29  O   UNL     1      33.720 -16.152 -26.133  0.00  0.00    -0.506 OA
ATOM     30  H   UNL     1      34.189 -16.189 -26.943  0.00  0.00    +0.292 HD
ENDBRANCH  28  29
BRANCH  26  31
ATOM     31  C   UNL     1      34.046 -14.584 -23.769  0.00  0.00    +0.061 C 
BRANCH  31  32
ATOM     32  C   UNL     1      33.203 -14.244 -22.537  0.00  0.00    +0.142 C 
BRANCH  32  33
ATOM     33  O   UNL     1      32.053 -13.509 -22.935  0.00  0.00    -0.382 OA
ATOM     34  H   UNL     1      31.729 -12.985 -22.184  0.00  0.00    +0.210 HD
ENDBRANCH  32  33
ENDBRANCH  31  32
ENDBRANCH  26  31
ENDBRANCH  22  23
BRANCH  22  35
ATOM     35  O   UNL     1      35.655 -17.831 -20.418  0.00  0.00    -0.382 OA
ATOM     36  H   UNL     1      35.372 -18.358 -19.654  0.00  0.00    +0.211 HD
ENDBRANCH  22  35
ENDBRANCH  21  22
ENDBRANCH   1  21
TORSDOF 12
ENDMDL
MODEL 5
REMARK VINA RESULT:     -10.5      3.668     11.118
REMARK  Name = 9963057
REMARK  12 active torsions:
REMARK  status: ('A' for Active; 'I' for Inactive)
REMARK    1  A    between atoms: N_1  and  C_4
REMARK    2  A    between atoms: N_1  and  C_21
REMARK    3  A    between atoms: C_12  and  O_14
REMARK    4  A    between atoms: O_14  and  C_15
REMARK    5  A    between atoms: C_15  and  C_18
REMARK    6  A    between atoms: C_21  and  C_22
REMARK    7  A    between atoms: C_22  and  C_23
REMARK    8  A    between atoms: C_22  and  O_35
REMARK    9  A    between atoms: C_26  and  C_31
REMARK   10  A    between atoms: C_28  and  O_29
REMARK   11  A    between atoms: C_31  and  C_32
REMARK   12  A    between atoms: C_32  and  O_33
REMARK                            x       y       z     vdW  Elec       q    Type
REMARK                         _______ _______ _______ _____ _____    ______ ____
ROOT
ATOM      1  N   UNL     1      35.796 -18.627 -22.016  0.00  0.00    +0.387 N 
ATOM      2  H   UNL     1      35.486 -18.993 -22.916  0.00  0.00    -0.084 HD
ATOM      3  H   UNL     1      36.787 -18.823 -21.876  0.00  0.00    -0.084 HD
ENDROOT
BRANCH   1   4
ATOM      4  C   UNL     1      35.035 -19.275 -20.947  0.00  0.00    -0.057 C 
ATOM      5  C   UNL     1      33.787 -19.947 -21.524  0.00  0.00    -0.016 C 
ATOM      6  C   UNL     1      35.904 -20.314 -20.226  0.00  0.00    +0.005 C 
ATOM      7  C   UNL     1      32.930 -20.528 -20.400  0.00  0.00    +0.024 C 
ATOM      8  C   UNL     1      35.117 -21.190 -19.282  0.00  0.00    -0.025 C 
ATOM      9  C   UNL     1      33.720 -21.322 -19.391  0.00  0.00    -0.026 C 
ATOM     10  C   UNL     1      35.805 -21.934 -18.311  0.00  0.00    +0.032 C 
ATOM     11  C   UNL     1      33.037 -22.167 -18.504  0.00  0.00    -0.001 C 
ATOM     12  C   UNL     1      35.115 -22.780 -17.442  0.00  0.00    +0.139 C 
ATOM     13  C   UNL     1      33.731 -22.893 -17.538  0.00  0.00    +0.037 C 
BRANCH  12  14
ATOM     14  O   UNL     1      35.793 -23.492 -16.503  0.00  0.00    -0.466 OA
BRANCH  14  15
ATOM     15  C   UNL     1      35.019 -24.262 -15.586  0.00  0.00    +0.290 C 
BRANCH  15  18
ATOM     16  O   UNL     1      36.017 -26.410 -15.656  0.00  0.00    -0.271 OA
ATOM     17  N   UNL     1      36.456 -25.147 -13.757  0.00  0.00    -0.273 N 
ATOM     18  C   UNL     1      35.871 -25.371 -15.005  0.00  0.00    +0.270 C 
ATOM     19  C   UNL     1      37.291 -26.181 -13.161  0.00  0.00    +0.115 C 
ATOM     20  C   UNL     1      36.318 -23.927 -12.965  0.00  0.00    +0.115 C 
ENDBRANCH  15  18
ENDBRANCH  14  15
ENDBRANCH  12  14
ENDBRANCH   1   4
BRANCH   1  21
ATOM     21  C   UNL     1      35.595 -17.187 -21.990  0.00  0.00    -0.047 C 
BRANCH  21  22
ATOM     22  C   UNL     1      34.776 -16.729 -23.203  0.00  0.00    +0.112 C 
BRANCH  22  23
ATOM     23  C   UNL     1      33.924 -15.522 -22.872  0.00  0.00    +0.002 C 
ATOM     24  C   UNL     1      33.899 -14.429 -23.738  0.00  0.00    -0.003 C 
ATOM     25  C   UNL     1      33.165 -15.503 -21.702  0.00  0.00    +0.001 C 
ATOM     26  C   UNL     1      33.113 -13.317 -23.434  0.00  0.00    +0.014 C 
ATOM     27  C   UNL     1      32.381 -14.391 -21.397  0.00  0.00    +0.036 C 
ATOM     28  C   UNL     1      32.356 -13.298 -22.263  0.00  0.00    +0.130 C 
BRANCH  28  29
ATOM     29  O   UNL     1      31.583 -12.219 -21.951  0.00  0.00    -0.506 OA
ATOM     30  H   UNL     1      30.670 -12.333 -21.773  0.00  0.00    +0.292 HD
ENDBRANCH  28  29
BRANCH  26  31
ATOM     31  C   UNL     1      33.097 -12.155 -24.372  0.00  0.00    +0.061 C 
BRANCH  31  32
ATOM     32  C   UNL     1      33.993 -11.003 -23.908  0.00  0.00    +0.142 C 
BRANCH  32  33
ATOM     33  O   UNL     1      35.048 -10.814 -24.843  0.00  0.00    -0.382 OA
ATOM     34  H   UNL     1      35.899 -10.976 -24.406  0.00  0.00    +0.210 HD
ENDBRANCH  32  33
ENDBRANCH  31  32
ENDBRANCH  26  31
ENDBRANCH  22  23
BRANCH  22  35
ATOM     35  O   UNL     1      35.640 -16.382 -24.284  0.00  0.00    -0.382 OA
ATOM     36  H   UNL     1      36.147 -17.163 -24.555  0.00  0.00    +0.211 HD
ENDBRANCH  22  35
ENDBRANCH  21  22
ENDBRANCH   1  21
TORSDOF 12
ENDMDL
MODEL 6
REMARK VINA RESULT:     -10.4      5.611     13.291
REMARK  Name = 9963057
REMARK  12 active torsions:
REMARK  status: ('A' for Active; 'I' for Inactive)
REMARK    1  A    between atoms: N_1  and  C_4
REMARK    2  A    between atoms: N_1  and  C_21
REMARK    3  A    between atoms: C_12  and  O_14
REMARK    4  A    between atoms: O_14  and  C_15
REMARK    5  A    between atoms: C_15  and  C_18
REMARK    6  A    between atoms: C_21  and  C_22
REMARK    7  A    between atoms: C_22  and  C_23
REMARK    8  A    between atoms: C_22  and  O_35
REMARK    9  A    between atoms: C_26  and  C_31
REMARK   10  A    between atoms: C_28  and  O_29
REMARK   11  A    between atoms: C_31  and  C_32
REMARK   12  A    between atoms: C_32  and  O_33
REMARK                            x       y       z     vdW  Elec       q    Type
REMARK                         _______ _______ _______ _____ _____    ______ ____
ROOT
ATOM      1  N   UNL     1      31.528 -11.690 -21.438  0.00  0.00    +0.387 N 
ATOM      2  H   UNL     1      32.051 -11.483 -20.587  0.00  0.00    -0.084 HD
ATOM      3  H   UNL     1      30.550 -11.878 -21.216  0.00  0.00    -0.084 HD
ENDROOT
BRANCH   1   4
ATOM      4  C   UNL     1      32.100 -12.876 -22.075  0.00  0.00    -0.057 C 
ATOM      5  C   UNL     1      33.026 -12.461 -23.220  0.00  0.00    -0.016 C 
ATOM      6  C   UNL     1      32.876 -13.713 -21.051  0.00  0.00    +0.005 C 
ATOM      7  C   UNL     1      33.538 -13.695 -23.963  0.00  0.00    +0.024 C 
ATOM      8  C   UNL     1      33.694 -14.813 -21.683  0.00  0.00    -0.025 C 
ATOM      9  C   UNL     1      34.040 -14.782 -23.046  0.00  0.00    -0.026 C 
ATOM     10  C   UNL     1      34.168 -15.858 -20.876  0.00  0.00    +0.032 C 
ATOM     11  C   UNL     1      34.823 -15.816 -23.582  0.00  0.00    -0.001 C 
ATOM     12  C   UNL     1      34.955 -16.875 -21.419  0.00  0.00    +0.139 C 
ATOM     13  C   UNL     1      35.279 -16.854 -22.772  0.00  0.00    +0.037 C 
BRANCH  12  14
ATOM     14  O   UNL     1      35.404 -17.885 -20.626  0.00  0.00    -0.466 OA
BRANCH  14  15
ATOM     15  C   UNL     1      35.493 -19.182 -21.213  0.00  0.00    +0.290 C 
BRANCH  15  18
ATOM     16  O   UNL     1      33.225 -19.850 -21.064  0.00  0.00    -0.271 OA
ATOM     17  N   UNL     1      34.730 -21.070 -19.784  0.00  0.00    -0.273 N 
ATOM     18  C   UNL     1      34.380 -20.060 -20.680  0.00  0.00    +0.270 C 
ATOM     19  C   UNL     1      33.695 -21.946 -19.251  0.00  0.00    +0.115 C 
ATOM     20  C   UNL     1      36.085 -21.357 -19.319  0.00  0.00    +0.115 C 
ENDBRANCH  15  18
ENDBRANCH  14  15
ENDBRANCH  12  14
ENDBRANCH   1   4
BRANCH   1  21
ATOM     21  C   UNL     1      31.594 -10.543 -22.330  0.00  0.00    -0.047 C 
BRANCH  21  22
ATOM     22  C   UNL     1      32.432  -9.418 -21.711  0.00  0.00    +0.112 C 
BRANCH  22  23
ATOM     23  C   UNL     1      32.739  -8.335 -22.723  0.00  0.00    +0.002 C 
ATOM     24  C   UNL     1      31.801  -7.335 -22.978  0.00  0.00    -0.003 C 
ATOM     25  C   UNL     1      33.959  -8.338 -23.399  0.00  0.00    +0.001 C 
ATOM     26  C   UNL     1      32.085  -6.336 -23.911  0.00  0.00    +0.014 C 
ATOM     27  C   UNL     1      34.241  -7.341 -24.333  0.00  0.00    +0.036 C 
ATOM     28  C   UNL     1      33.304  -6.340 -24.588  0.00  0.00    +0.130 C 
BRANCH  28  29
ATOM     29  O   UNL     1      33.596  -5.372 -25.502  0.00  0.00    -0.506 OA
ATOM     30  H   UNL     1      33.648  -5.587 -26.413  0.00  0.00    +0.292 HD
ENDBRANCH  28  29
BRANCH  26  31
ATOM     31  C   UNL     1      31.070  -5.272 -24.173  0.00  0.00    +0.061 C 
BRANCH  31  32
ATOM     32  C   UNL     1      31.244  -4.049 -23.269  0.00  0.00    +0.142 C 
BRANCH  32  33
ATOM     33  O   UNL     1      30.356  -4.145 -22.162  0.00  0.00    -0.382 OA
ATOM     34  H   UNL     1      29.920  -5.012 -22.171  0.00  0.00    +0.210 HD
ENDBRANCH  32  33
ENDBRANCH  31  32
ENDBRANCH  26  31
ENDBRANCH  22  23
BRANCH  22  35
ATOM     35  O   UNL     1      31.734  -8.823 -20.618  0.00  0.00    -0.382 OA
ATOM     36  H   UNL     1      31.762  -9.420 -19.854  0.00  0.00    +0.211 HD
ENDBRANCH  22  35
ENDBRANCH  21  22
ENDBRANCH   1  21
TORSDOF 12
ENDMDL
MODEL 7
REMARK VINA RESULT:     -10.4      2.400      4.479
REMARK  Name = 9963057
REMARK  12 active torsions:
REMARK  status: ('A' for Active; 'I' for Inactive)
REMARK    1  A    between atoms: N_1  and  C_4
REMARK    2  A    between atoms: N_1  and  C_21
REMARK    3  A    between atoms: C_12  and  O_14
REMARK    4  A    between atoms: O_14  and  C_15
REMARK    5  A    between atoms: C_15  and  C_18
REMARK    6  A    between atoms: C_21  and  C_22
REMARK    7  A    between atoms: C_22  and  C_23
REMARK    8  A    between atoms: C_22  and  O_35
REMARK    9  A    between atoms: C_26  and  C_31
REMARK   10  A    between atoms: C_28  and  O_29
REMARK   11  A    between atoms: C_31  and  C_32
REMARK   12  A    between atoms: C_32  and  O_33
REMARK                            x       y       z     vdW  Elec       q    Type
REMARK                         _______ _______ _______ _____ _____    ______ ____
ROOT
ATOM      1  N   UNL     1      32.669 -22.354 -18.653  0.00  0.00    +0.387 N 
ATOM      2  H   UNL     1      32.206 -22.730 -19.480  0.00  0.00    -0.084 HD
ATOM      3  H   UNL     1      31.989 -21.907 -18.038  0.00  0.00    -0.084 HD
ENDROOT
BRANCH   1   4
ATOM      4  C   UNL     1      33.654 -21.356 -19.067  0.00  0.00    -0.057 C 
ATOM      5  C   UNL     1      35.033 -22.006 -19.208  0.00  0.00    -0.016 C 
ATOM      6  C   UNL     1      33.240 -20.714 -20.397  0.00  0.00    +0.005 C 
ATOM      7  C   UNL     1      36.088 -20.948 -19.530  0.00  0.00    +0.024 C 
ATOM      8  C   UNL     1      34.325 -19.859 -21.005  0.00  0.00    -0.025 C 
ATOM      9  C   UNL     1      35.672 -19.999 -20.626  0.00  0.00    -0.026 C 
ATOM     10  C   UNL     1      33.986 -18.945 -22.015  0.00  0.00    +0.032 C 
ATOM     11  C   UNL     1      36.647 -19.198 -21.237  0.00  0.00    -0.001 C 
ATOM     12  C   UNL     1      34.966 -18.162 -22.624  0.00  0.00    +0.139 C 
ATOM     13  C   UNL     1      36.296 -18.287 -22.232  0.00  0.00    +0.037 C 
BRANCH  12  14
ATOM     14  O   UNL     1      34.623 -17.277 -23.599  0.00  0.00    -0.466 OA
BRANCH  14  15
ATOM     15  C   UNL     1      35.067 -15.931 -23.440  0.00  0.00    +0.290 C 
BRANCH  15  18
ATOM     16  O   UNL     1      33.208 -14.684 -24.218  0.00  0.00    -0.271 OA
ATOM     17  N   UNL     1      33.586 -14.623 -21.928  0.00  0.00    -0.273 N 
ATOM     18  C   UNL     1      33.873 -15.022 -23.234  0.00  0.00    +0.270 C 
ATOM     19  C   UNL     1      32.442 -13.755 -21.678  0.00  0.00    +0.115 C 
ATOM     20  C   UNL     1      34.339 -15.013 -20.739  0.00  0.00    +0.115 C 
ENDBRANCH  15  18
ENDBRANCH  14  15
ENDBRANCH  12  14
ENDBRANCH   1   4
BRANCH   1  21
ATOM     21  C   UNL     1      33.310 -23.441 -17.929  0.00  0.00    -0.047 C 
BRANCH  21  22
ATOM     22  C   UNL     1      32.609 -23.691 -16.588  0.00  0.00    +0.112 C 
BRANCH  22  23
ATOM     23  C   UNL     1      33.595 -23.689 -15.439  0.00  0.00    +0.002 C 
ATOM     24  C   UNL     1      34.930 -23.358 -15.668  0.00  0.00    -0.003 C 
ATOM     25  C   UNL     1      33.167 -24.018 -14.153  0.00  0.00    +0.001 C 
ATOM     26  C   UNL     1      35.838 -23.357 -14.609  0.00  0.00    +0.014 C 
ATOM     27  C   UNL     1      34.075 -24.018 -13.095  0.00  0.00    +0.036 C 
ATOM     28  C   UNL     1      35.411 -23.688 -13.323  0.00  0.00    +0.130 C 
BRANCH  28  29
ATOM     29  O   UNL     1      36.285 -23.690 -12.278  0.00  0.00    -0.506 OA
ATOM     30  H   UNL     1      36.558 -22.880 -11.893  0.00  0.00    +0.292 HD
ENDBRANCH  28  29
BRANCH  26  31
ATOM     31  C   UNL     1      37.265 -23.000 -14.870  0.00  0.00    +0.061 C 
BRANCH  31  32
ATOM     32  C   UNL     1      38.168 -24.228 -15.017  0.00  0.00    +0.142 C 
BRANCH  32  33
ATOM     33  O   UNL     1      38.829 -24.483 -13.784  0.00  0.00    -0.382 OA
ATOM     34  H   UNL     1      38.988 -23.643 -13.323  0.00  0.00    +0.210 HD
ENDBRANCH  32  33
ENDBRANCH  31  32
ENDBRANCH  26  31
ENDBRANCH  22  23
BRANCH  22  35
ATOM     35  O   UNL     1      31.635 -22.678 -16.341  0.00  0.00    -0.382 OA
ATOM     36  H   UNL     1      31.883 -21.869 -16.816  0.00  0.00    +0.211 HD
ENDBRANCH  22  35
ENDBRANCH  21  22
ENDBRANCH   1  21
TORSDOF 12
ENDMDL
MODEL 8
REMARK VINA RESULT:     -10.3      3.960     11.199
REMARK  Name = 9963057
REMARK  12 active torsions:
REMARK  status: ('A' for Active; 'I' for Inactive)
REMARK    1  A    between atoms: N_1  and  C_4
REMARK    2  A    between atoms: N_1  and  C_21
REMARK    3  A    between atoms: C_12  and  O_14
REMARK    4  A    between atoms: O_14  and  C_15
REMARK    5  A    between atoms: C_15  and  C_18
REMARK    6  A    between atoms: C_21  and  C_22
REMARK    7  A    between atoms: C_22  and  C_23
REMARK    8  A    between atoms: C_22  and  O_35
REMARK    9  A    between atoms: C_26  and  C_31
REMARK   10  A    between atoms: C_28  and  O_29
REMARK   11  A    between atoms: C_31  and  C_32
REMARK   12  A    between atoms: C_32  and  O_33
REMARK                            x       y       z     vdW  Elec       q    Type
REMARK                         _______ _______ _______ _____ _____    ______ ____
ROOT
ATOM      1  N   UNL     1      35.073 -20.313 -20.968  0.00  0.00    +0.387 N 
ATOM      2  H   UNL     1      34.803 -21.002 -21.669  0.00  0.00    -0.084 HD
ATOM      3  H   UNL     1      36.071 -20.110 -21.034  0.00  0.00    -0.084 HD
ENDROOT
BRANCH   1   4
ATOM      4  C   UNL     1      34.792 -20.849 -19.636  0.00  0.00    -0.057 C 
ATOM      5  C   UNL     1      33.846 -22.047 -19.742  0.00  0.00    -0.016 C 
ATOM      6  C   UNL     1      36.094 -21.269 -18.942  0.00  0.00    +0.005 C 
ATOM      7  C   UNL     1      33.458 -22.542 -18.348  0.00  0.00    +0.024 C 
ATOM      8  C   UNL     1      35.862 -22.054 -17.674  0.00  0.00    -0.025 C 
ATOM      9  C   UNL     1      34.633 -22.688 -17.414  0.00  0.00    -0.026 C 
ATOM     10  C   UNL     1      36.919 -22.202 -16.762  0.00  0.00    +0.032 C 
ATOM     11  C   UNL     1      34.474 -23.426 -16.232  0.00  0.00    -0.001 C 
ATOM     12  C   UNL     1      36.752 -22.947 -15.595  0.00  0.00    +0.139 C 
ATOM     13  C   UNL     1      35.529 -23.557 -15.330  0.00  0.00    +0.037 C 
BRANCH  12  14
ATOM     14  O   UNL     1      37.783 -23.079 -14.718  0.00  0.00    -0.466 OA
BRANCH  14  15
ATOM     15  C   UNL     1      37.756 -24.208 -13.847  0.00  0.00    +0.290 C 
BRANCH  15  18
ATOM     16  O   UNL     1      38.629 -23.150 -11.916  0.00  0.00    -0.271 OA
ATOM     17  N   UNL     1      36.479 -24.004 -11.722  0.00  0.00    -0.273 N 
ATOM     18  C   UNL     1      37.665 -23.742 -12.409  0.00  0.00    +0.270 C 
ATOM     19  C   UNL     1      36.340 -23.567 -10.339  0.00  0.00    +0.115 C 
ATOM     20  C   UNL     1      35.313 -24.688 -12.276  0.00  0.00    +0.115 C 
ENDBRANCH  15  18
ENDBRANCH  14  15
ENDBRANCH  12  14
ENDBRANCH   1   4
BRANCH   1  21
ATOM     21  C   UNL     1      34.329 -19.084 -21.195  0.00  0.00    -0.047 C 
BRANCH  21  22
ATOM     22  C   UNL     1      35.274 -17.939 -21.581  0.00  0.00    +0.112 C 
BRANCH  22  23
ATOM     23  C   UNL     1      34.842 -17.275 -22.870  0.00  0.00    +0.002 C 
ATOM     24  C   UNL     1      34.154 -16.062 -22.832  0.00  0.00    -0.003 C 
ATOM     25  C   UNL     1      35.130 -17.875 -24.096  0.00  0.00    +0.001 C 
ATOM     26  C   UNL     1      33.756 -15.449 -24.021  0.00  0.00    +0.014 C 
ATOM     27  C   UNL     1      34.731 -17.264 -25.284  0.00  0.00    +0.036 C 
ATOM     28  C   UNL     1      34.044 -16.051 -25.246  0.00  0.00    +0.130 C 
BRANCH  28  29
ATOM     29  O   UNL     1      33.662 -15.465 -26.416  0.00  0.00    -0.506 OA
ATOM     30  H   UNL     1      34.300 -15.279 -27.077  0.00  0.00    +0.292 HD
ENDBRANCH  28  29
BRANCH  26  31
ATOM     31  C   UNL     1      33.021 -14.150 -23.963  0.00  0.00    +0.061 C 
BRANCH  31  32
ATOM     32  C   UNL     1      33.956 -12.942 -23.864  0.00  0.00    +0.142 C 
BRANCH  32  33
ATOM     33  O   UNL     1      33.682 -12.040 -24.930  0.00  0.00    -0.382 OA
ATOM     34  H   UNL     1      33.630 -11.135 -24.582  0.00  0.00    +0.210 HD
ENDBRANCH  32  33
ENDBRANCH  31  32
ENDBRANCH  26  31
ENDBRANCH  22  23
BRANCH  22  35
ATOM     35  O   UNL     1      35.298 -16.948 -20.555  0.00  0.00    -0.382 OA
ATOM     36  H   UNL     1      35.386 -17.380 -19.691  0.00  0.00    +0.211 HD
ENDBRANCH  22  35
ENDBRANCH  21  22
ENDBRANCH   1  21
TORSDOF 12
ENDMDL
MODEL 9
REMARK VINA RESULT:     -10.3      5.680     13.035
REMARK  Name = 9963057
REMARK  12 active torsions:
REMARK  status: ('A' for Active; 'I' for Inactive)
REMARK    1  A    between atoms: N_1  and  C_4
REMARK    2  A    between atoms: N_1  and  C_21
REMARK    3  A    between atoms: C_12  and  O_14
REMARK    4  A    between atoms: O_14  and  C_15
REMARK    5  A    between atoms: C_15  and  C_18
REMARK    6  A    between atoms: C_21  and  C_22
REMARK    7  A    between atoms: C_22  and  C_23
REMARK    8  A    between atoms: C_22  and  O_35
REMARK    9  A    between atoms: C_26  and  C_31
REMARK   10  A    between atoms: C_28  and  O_29
REMARK   11  A    between atoms: C_31  and  C_32
REMARK   12  A    between atoms: C_32  and  O_33
REMARK                            x       y       z     vdW  Elec       q    Type
REMARK                         _______ _______ _______ _____ _____    ______ ____
ROOT
ATOM      1  N   UNL     1      31.249 -11.955 -21.711  0.00  0.00    +0.387 N 
ATOM      2  H   UNL     1      31.376 -11.980 -20.700  0.00  0.00    -0.084 HD
ATOM      3  H   UNL     1      30.258 -12.015 -21.946  0.00  0.00    -0.084 HD
ENDROOT
BRANCH   1   4
ATOM      4  C   UNL     1      31.942 -13.096 -22.310  0.00  0.00    -0.057 C 
ATOM      5  C   UNL     1      32.938 -12.611 -23.365  0.00  0.00    -0.016 C 
ATOM      6  C   UNL     1      32.674 -13.905 -21.231  0.00  0.00    +0.005 C 
ATOM      7  C   UNL     1      33.583 -13.801 -24.074  0.00  0.00    +0.024 C 
ATOM      8  C   UNL     1      33.606 -14.946 -21.802  0.00  0.00    -0.025 C 
ATOM      9  C   UNL     1      34.066 -14.873 -23.130  0.00  0.00    -0.026 C 
ATOM     10  C   UNL     1      34.068 -15.976 -20.969  0.00  0.00    +0.032 C 
ATOM     11  C   UNL     1      34.951 -15.851 -23.607  0.00  0.00    -0.001 C 
ATOM     12  C   UNL     1      34.956 -16.937 -21.452  0.00  0.00    +0.139 C 
ATOM     13  C   UNL     1      35.395 -16.876 -22.772  0.00  0.00    +0.037 C 
BRANCH  12  14
ATOM     14  O   UNL     1      35.393 -17.933 -20.635  0.00  0.00    -0.466 OA
BRANCH  14  15
ATOM     15  C   UNL     1      35.464 -19.245 -21.190  0.00  0.00    +0.290 C 
BRANCH  15  18
ATOM     16  O   UNL     1      33.203 -19.896 -20.914  0.00  0.00    -0.271 OA
ATOM     17  N   UNL     1      34.767 -21.119 -19.709  0.00  0.00    -0.273 N 
ATOM     18  C   UNL     1      34.376 -20.112 -20.592  0.00  0.00    +0.270 C 
ATOM     19  C   UNL     1      33.756 -21.984 -19.115  0.00  0.00    +0.115 C 
ATOM     20  C   UNL     1      36.143 -21.412 -19.316  0.00  0.00    +0.115 C 
ENDBRANCH  15  18
ENDBRANCH  14  15
ENDBRANCH  12  14
ENDBRANCH   1   4
BRANCH   1  21
ATOM     21  C   UNL     1      31.778 -10.702 -22.228  0.00  0.00    -0.047 C 
BRANCH  21  22
ATOM     22  C   UNL     1      32.215  -9.781 -21.083  0.00  0.00    +0.112 C 
BRANCH  22  23
ATOM     23  C   UNL     1      32.025  -8.323 -21.442  0.00  0.00    +0.002 C 
ATOM     24  C   UNL     1      31.774  -7.958 -22.764  0.00  0.00    -0.003 C 
ATOM     25  C   UNL     1      32.103  -7.345 -20.450  0.00  0.00    +0.001 C 
ATOM     26  C   UNL     1      31.599  -6.614 -23.094  0.00  0.00    +0.014 C 
ATOM     27  C   UNL     1      31.930  -6.001 -20.781  0.00  0.00    +0.036 C 
ATOM     28  C   UNL     1      31.678  -5.636 -22.103  0.00  0.00    +0.130 C 
BRANCH  28  29
ATOM     29  O   UNL     1      31.509  -4.319 -22.409  0.00  0.00    -0.506 OA
ATOM     30  H   UNL     1      32.130  -3.882 -22.960  0.00  0.00    +0.292 HD
ENDBRANCH  28  29
BRANCH  26  31
ATOM     31  C   UNL     1      31.330  -6.240 -24.515  0.00  0.00    +0.061 C 
BRANCH  31  32
ATOM     32  C   UNL     1      32.552  -5.639 -25.214  0.00  0.00    +0.142 C 
BRANCH  32  33
ATOM     33  O   UNL     1      32.381  -4.234 -25.348  0.00  0.00    -0.382 OA
ATOM     34  H   UNL     1      32.865  -3.922 -26.130  0.00  0.00    +0.210 HD
ENDBRANCH  32  33
ENDBRANCH  31  32
ENDBRANCH  26  31
ENDBRANCH  22  23
BRANCH  22  35
ATOM     35  O   UNL     1      31.452 -10.054 -19.908  0.00  0.00    -0.382 OA
ATOM     36  H   UNL     1      31.489  -9.288 -19.314  0.00  0.00    +0.211 HD
ENDBRANCH  22  35
ENDBRANCH  21  22
ENDBRANCH   1  21
TORSDOF 12
ENDMDL
