MODEL 1
REMARK VINA RESULT:      -5.9      0.000      0.000
REMARK  Name = 447147
REMARK  3 active torsions:
REMARK  status: ('A' for Active; 'I' for Inactive)
REMARK    1  A    between atoms: C_2  and  O_8
REMARK    2  A    between atoms: C_5  and  O_10
REMARK    3  A    between atoms: C_6  and  O_12
REMARK                            x       y       z     vdW  Elec       q    Type
REMARK                         _______ _______ _______ _____ _____    ______ ____
ROOT
ATOM      1  O   UNL     1      38.389 -25.750 -13.294  0.00  0.00    -0.329 OA
ATOM      2  C   UNL     1      36.271 -24.573 -13.675  0.00  0.00    +0.140 C 
ATOM      3  C   UNL     1      36.108 -25.314 -15.000  0.00  0.00    +0.066 C 
ATOM      4  C   UNL     1      37.754 -24.464 -13.288  0.00  0.00    +0.145 C 
ATOM      5  C   UNL     1      36.876 -26.634 -14.972  0.00  0.00    +0.169 C 
ATOM      6  C   UNL     1      38.332 -26.410 -14.561  0.00  0.00    +0.260 C 
ATOM      7  C   UNL     1      37.950 -23.869 -11.898  0.00  0.00    +0.035 C 
ENDROOT
BRANCH   2   8
ATOM      8  O   UNL     1      35.565 -25.280 -12.655  0.00  0.00    -0.382 OA
ATOM      9  H   UNL     1      34.737 -25.629 -13.019  0.00  0.00    +0.210 HD
ENDBRANCH   2   8
BRANCH   5  10
ATOM     10  O   UNL     1      36.801 -27.249 -16.250  0.00  0.00    -0.379 OA
ATOM     11  H   UNL     1      35.906 -27.598 -16.389  0.00  0.00    +0.211 HD
ENDBRANCH   5  10
BRANCH   6  12
ATOM     12  O   UNL     1      39.025 -25.686 -15.577  0.00  0.00    -0.358 OA
ATOM     13  H   UNL     1      38.492 -25.678 -16.388  0.00  0.00    +0.213 HD
ENDBRANCH   6  12
TORSDOF 3
ENDMDL
MODEL 2
REMARK VINA RESULT:      -5.8      1.467      3.277
REMARK  Name = 447147
REMARK  3 active torsions:
REMARK  status: ('A' for Active; 'I' for Inactive)
REMARK    1  A    between atoms: C_2  and  O_8
REMARK    2  A    between atoms: C_5  and  O_10
REMARK    3  A    between atoms: C_6  and  O_12
REMARK                            x       y       z     vdW  Elec       q    Type
REMARK                         _______ _______ _______ _____ _____    ______ ____
ROOT
ATOM      1  O   UNL     1      38.597 -24.170 -13.687  0.00  0.00    -0.329 OA
ATOM      2  C   UNL     1      38.159 -26.496 -14.328  0.00  0.00    +0.140 C 
ATOM      3  C   UNL     1      36.982 -26.533 -13.355  0.00  0.00    +0.066 C 
ATOM      4  C   UNL     1      39.200 -25.456 -13.887  0.00  0.00    +0.145 C 
ATOM      5  C   UNL     1      36.441 -25.124 -13.119  0.00  0.00    +0.169 C 
ATOM      6  C   UNL     1      37.561 -24.171 -12.701  0.00  0.00    +0.260 C 
ATOM      7  C   UNL     1      40.313 -25.278 -14.914  0.00  0.00    +0.035 C 
ENDROOT
BRANCH   2   8
ATOM      8  O   UNL     1      37.677 -26.165 -15.631  0.00  0.00    -0.382 OA
ATOM      9  H   UNL     1      38.415 -26.173 -16.259  0.00  0.00    +0.210 HD
ENDBRANCH   2   8
BRANCH   5  10
ATOM     10  O   UNL     1      35.423 -25.172 -12.129  0.00  0.00    -0.379 OA
ATOM     11  H   UNL     1      34.893 -25.976 -12.248  0.00  0.00    +0.211 HD
ENDBRANCH   5  10
BRANCH   6  12
ATOM     12  O   UNL     1      38.050 -24.522 -11.407  0.00  0.00    -0.358 OA
ATOM     13  H   UNL     1      38.205 -25.479 -11.370  0.00  0.00    +0.213 HD
ENDBRANCH   6  12
TORSDOF 3
ENDMDL
MODEL 3
REMARK VINA RESULT:      -5.7      1.580      2.554
REMARK  Name = 447147
REMARK  3 active torsions:
REMARK  status: ('A' for Active; 'I' for Inactive)
REMARK    1  A    between atoms: C_2  and  O_8
REMARK    2  A    between atoms: C_5  and  O_10
REMARK    3  A    between atoms: C_6  and  O_12
REMARK                            x       y       z     vdW  Elec       q    Type
REMARK                         _______ _______ _______ _____ _____    ______ ____
ROOT
ATOM      1  O   UNL     1      38.349 -26.906 -14.363  0.00  0.00    -0.329 OA
ATOM      2  C   UNL     1      38.566 -24.476 -14.607  0.00  0.00    +0.140 C 
ATOM      3  C   UNL     1      37.091 -24.392 -14.995  0.00  0.00    +0.066 C 
ATOM      4  C   UNL     1      39.142 -25.860 -14.942  0.00  0.00    +0.145 C 
ATOM      5  C   UNL     1      36.320 -25.578 -14.419  0.00  0.00    +0.169 C 
ATOM      6  C   UNL     1      36.988 -26.901 -14.799  0.00  0.00    +0.260 C 
ATOM      7  C   UNL     1      40.567 -26.035 -14.428  0.00  0.00    +0.035 C 
ENDROOT
BRANCH   2   8
ATOM      8  O   UNL     1      38.694 -24.233 -13.206  0.00  0.00    -0.382 OA
ATOM      9  H   UNL     1      37.855 -24.435 -12.765  0.00  0.00    +0.210 HD
ENDBRANCH   2   8
BRANCH   5  10
ATOM     10  O   UNL     1      34.978 -25.538 -14.886  0.00  0.00    -0.379 OA
ATOM     11  H   UNL     1      34.461 -26.229 -14.441  0.00  0.00    +0.211 HD
ENDBRANCH   5  10
BRANCH   6  12
ATOM     12  O   UNL     1      36.872 -27.125 -16.204  0.00  0.00    -0.358 OA
ATOM     13  H   UNL     1      36.587 -28.039 -16.363  0.00  0.00    +0.213 HD
ENDBRANCH   6  12
TORSDOF 3
ENDMDL
MODEL 4
REMARK VINA RESULT:      -5.7      1.968      3.752
REMARK  Name = 447147
REMARK  3 active torsions:
REMARK  status: ('A' for Active; 'I' for Inactive)
REMARK    1  A    between atoms: C_2  and  O_8
REMARK    2  A    between atoms: C_5  and  O_10
REMARK    3  A    between atoms: C_6  and  O_12
REMARK                            x       y       z     vdW  Elec       q    Type
REMARK                         _______ _______ _______ _____ _____    ______ ____
ROOT
ATOM      1  O   UNL     1      36.261 -24.593 -14.171  0.00  0.00    -0.329 OA
ATOM      2  C   UNL     1      37.855 -25.807 -12.758  0.00  0.00    +0.140 C 
ATOM      3  C   UNL     1      38.182 -24.507 -12.026  0.00  0.00    +0.066 C 
ATOM      4  C   UNL     1      37.354 -25.522 -14.182  0.00  0.00    +0.145 C 
ATOM      5  C   UNL     1      37.012 -23.531 -12.125  0.00  0.00    +0.169 C 
ATOM      6  C   UNL     1      36.586 -23.333 -13.580  0.00  0.00    +0.260 C 
ATOM      7  C   UNL     1      36.870 -26.782 -14.890  0.00  0.00    +0.035 C 
ENDROOT
BRANCH   2   8
ATOM      8  O   UNL     1      36.848 -26.511 -12.031  0.00  0.00    -0.382 OA
ATOM      9  H   UNL     1      37.268 -27.115 -11.400  0.00  0.00    +0.210 HD
ENDBRANCH   2   8
BRANCH   5  10
ATOM     10  O   UNL     1      37.382 -22.292 -11.534  0.00  0.00    -0.379 OA
ATOM     11  H   UNL     1      37.944 -21.796 -12.150  0.00  0.00    +0.211 HD
ENDBRANCH   5  10
BRANCH   6  12
ATOM     12  O   UNL     1      37.607 -22.647 -14.303  0.00  0.00    -0.358 OA
ATOM     13  H   UNL     1      37.356 -21.716 -14.411  0.00  0.00    +0.213 HD
ENDBRANCH   6  12
TORSDOF 3
ENDMDL
MODEL 5
REMARK VINA RESULT:      -5.6     10.783     11.885
REMARK  Name = 447147
REMARK  3 active torsions:
REMARK  status: ('A' for Active; 'I' for Inactive)
REMARK    1  A    between atoms: C_2  and  O_8
REMARK    2  A    between atoms: C_5  and  O_10
REMARK    3  A    between atoms: C_6  and  O_12
REMARK                            x       y       z     vdW  Elec       q    Type
REMARK                         _______ _______ _______ _____ _____    ______ ____
ROOT
ATOM      1  O   UNL     1      42.330 -16.472 -16.284  0.00  0.00    -0.329 OA
ATOM      2  C   UNL     1      41.923 -14.587 -17.801  0.00  0.00    +0.140 C 
ATOM      3  C   UNL     1      40.949 -13.993 -16.786  0.00  0.00    +0.066 C 
ATOM      4  C   UNL     1      42.019 -16.112 -17.638  0.00  0.00    +0.145 C 
ATOM      5  C   UNL     1      41.282 -14.481 -15.378  0.00  0.00    +0.169 C 
ATOM      6  C   UNL     1      41.369 -16.007 -15.334  0.00  0.00    +0.260 C 
ATOM      7  C   UNL     1      43.096 -16.724 -18.527  0.00  0.00    +0.035 C 
ENDROOT
BRANCH   2   8
ATOM      8  O   UNL     1      43.212 -14.006 -17.606  0.00  0.00    -0.382 OA
ATOM      9  H   UNL     1      43.655 -14.444 -16.865  0.00  0.00    +0.210 HD
ENDBRANCH   2   8
BRANCH   5  10
ATOM     10  O   UNL     1      40.298 -14.005 -14.470  0.00  0.00    -0.379 OA
ATOM     11  H   UNL     1      40.712 -13.820 -13.612  0.00  0.00    +0.211 HD
ENDBRANCH   5  10
BRANCH   6  12
ATOM     12  O   UNL     1      40.079 -16.580 -15.549  0.00  0.00    -0.358 OA
ATOM     13  H   UNL     1      39.545 -16.485 -14.744  0.00  0.00    +0.213 HD
ENDBRANCH   6  12
TORSDOF 3
ENDMDL
MODEL 6
REMARK VINA RESULT:      -5.5      2.052      2.483
REMARK  Name = 447147
REMARK  3 active torsions:
REMARK  status: ('A' for Active; 'I' for Inactive)
REMARK    1  A    between atoms: C_2  and  O_8
REMARK    2  A    between atoms: C_5  and  O_10
REMARK    3  A    between atoms: C_6  and  O_12
REMARK                            x       y       z     vdW  Elec       q    Type
REMARK                         _______ _______ _______ _____ _____    ______ ____
ROOT
ATOM      1  O   UNL     1      38.150 -23.707 -14.701  0.00  0.00    -0.329 OA
ATOM      2  C   UNL     1      35.753 -23.766 -15.216  0.00  0.00    +0.140 C 
ATOM      3  C   UNL     1      35.681 -25.193 -14.676  0.00  0.00    +0.066 C 
ATOM      4  C   UNL     1      37.169 -23.441 -15.714  0.00  0.00    +0.145 C 
ATOM      5  C   UNL     1      36.801 -25.438 -13.668  0.00  0.00    +0.169 C 
ATOM      6  C   UNL     1      38.161 -25.067 -14.260  0.00  0.00    +0.260 C 
ATOM      7  C   UNL     1      37.321 -21.978 -16.116  0.00  0.00    +0.035 C 
ENDROOT
BRANCH   2   8
ATOM      8  O   UNL     1      35.392 -22.855 -14.178  0.00  0.00    -0.382 OA
ATOM      9  H   UNL     1      35.855 -23.097 -13.362  0.00  0.00    +0.210 HD
ENDBRANCH   2   8
BRANCH   5  10
ATOM     10  O   UNL     1      36.781 -26.801 -13.265  0.00  0.00    -0.379 OA
ATOM     11  H   UNL     1      37.681 -27.161 -13.298  0.00  0.00    +0.211 HD
ENDBRANCH   5  10
BRANCH   6  12
ATOM     12  O   UNL     1      38.504 -25.971 -15.310  0.00  0.00    -0.358 OA
ATOM     13  H   UNL     1      39.167 -25.559 -15.886  0.00  0.00    +0.213 HD
ENDBRANCH   6  12
TORSDOF 3
ENDMDL
MODEL 7
REMARK VINA RESULT:      -5.5      1.671      3.085
REMARK  Name = 447147
REMARK  3 active torsions:
REMARK  status: ('A' for Active; 'I' for Inactive)
REMARK    1  A    between atoms: C_2  and  O_8
REMARK    2  A    between atoms: C_5  and  O_10
REMARK    3  A    between atoms: C_6  and  O_12
REMARK                            x       y       z     vdW  Elec       q    Type
REMARK                         _______ _______ _______ _____ _____    ______ ____
ROOT
ATOM      1  O   UNL     1      35.988 -25.912 -15.560  0.00  0.00    -0.329 OA
ATOM      2  C   UNL     1      37.025 -23.805 -14.853  0.00  0.00    +0.140 C 
ATOM      3  C   UNL     1      38.220 -24.587 -14.309  0.00  0.00    +0.066 C 
ATOM      4  C   UNL     1      35.761 -24.678 -14.865  0.00  0.00    +0.145 C 
ATOM      5  C   UNL     1      38.355 -25.925 -15.032  0.00  0.00    +0.169 C 
ATOM      6  C   UNL     1      37.038 -26.702 -14.997  0.00  0.00    +0.260 C 
ATOM      7  C   UNL     1      34.585 -23.986 -15.544  0.00  0.00    +0.035 C 
ENDROOT
BRANCH   2   8
ATOM      8  O   UNL     1      37.317 -23.372 -16.181  0.00  0.00    -0.382 OA
ATOM      9  H   UNL     1      36.801 -23.895 -16.813  0.00  0.00    +0.210 HD
ENDBRANCH   2   8
BRANCH   5  10
ATOM     10  O   UNL     1      39.401 -26.679 -14.434  0.00  0.00    -0.379 OA
ATOM     11  H   UNL     1      40.161 -26.099 -14.266  0.00  0.00    +0.211 HD
ENDBRANCH   5  10
BRANCH   6  12
ATOM     12  O   UNL     1      36.745 -27.113 -13.662  0.00  0.00    -0.358 OA
ATOM     13  H   UNL     1      37.425 -26.769 -13.062  0.00  0.00    +0.213 HD
ENDBRANCH   6  12
TORSDOF 3
ENDMDL
MODEL 8
REMARK VINA RESULT:      -5.5      1.649      3.473
REMARK  Name = 447147
REMARK  3 active torsions:
REMARK  status: ('A' for Active; 'I' for Inactive)
REMARK    1  A    between atoms: C_2  and  O_8
REMARK    2  A    between atoms: C_5  and  O_10
REMARK    3  A    between atoms: C_6  and  O_12
REMARK                            x       y       z     vdW  Elec       q    Type
REMARK                         _______ _______ _______ _____ _____    ______ ____
ROOT
ATOM      1  O   UNL     1      38.462 -23.855 -12.908  0.00  0.00    -0.329 OA
ATOM      2  C   UNL     1      37.247 -25.456 -14.312  0.00  0.00    +0.140 C 
ATOM      3  C   UNL     1      35.959 -25.123 -13.562  0.00  0.00    +0.066 C 
ATOM      4  C   UNL     1      38.477 -25.190 -13.432  0.00  0.00    +0.145 C 
ATOM      5  C   UNL     1      36.041 -23.723 -12.957  0.00  0.00    +0.169 C 
ATOM      6  C   UNL     1      37.308 -23.563 -12.116  0.00  0.00    +0.260 C 
ATOM      7  C   UNL     1      39.785 -25.361 -14.196  0.00  0.00    +0.035 C 
ENDROOT
BRANCH   2   8
ATOM      8  O   UNL     1      37.321 -24.653 -15.490  0.00  0.00    -0.382 OA
ATOM      9  H   UNL     1      36.638 -23.966 -15.456  0.00  0.00    +0.210 HD
ENDBRANCH   2   8
BRANCH   5  10
ATOM     10  O   UNL     1      34.881 -23.481 -12.173  0.00  0.00    -0.379 OA
ATOM     11  H   UNL     1      35.076 -23.668 -11.241  0.00  0.00    +0.211 HD
ENDBRANCH   5  10
BRANCH   6  12
ATOM     12  O   UNL     1      37.233 -24.385 -10.952  0.00  0.00    -0.358 OA
ATOM     13  H   UNL     1      36.952 -23.848 -10.195  0.00  0.00    +0.213 HD
ENDBRANCH   6  12
TORSDOF 3
ENDMDL
MODEL 9
REMARK VINA RESULT:      -5.4      1.621      2.539
REMARK  Name = 447147
REMARK  3 active torsions:
REMARK  status: ('A' for Active; 'I' for Inactive)
REMARK    1  A    between atoms: C_2  and  O_8
REMARK    2  A    between atoms: C_5  and  O_10
REMARK    3  A    between atoms: C_6  and  O_12
REMARK                            x       y       z     vdW  Elec       q    Type
REMARK                         _______ _______ _______ _____ _____    ______ ____
ROOT
ATOM      1  O   UNL     1      36.572 -25.401 -14.068  0.00  0.00    -0.329 OA
ATOM      2  C   UNL     1      38.249 -24.591 -12.471  0.00  0.00    +0.140 C 
ATOM      3  C   UNL     1      39.357 -25.110 -13.386  0.00  0.00    +0.066 C 
ATOM      4  C   UNL     1      36.949 -25.383 -12.683  0.00  0.00    +0.145 C 
ATOM      5  C   UNL     1      38.865 -25.185 -14.830  0.00  0.00    +0.169 C 
ATOM      6  C   UNL     1      37.561 -25.980 -14.923  0.00  0.00    +0.260 C 
ATOM      7  C   UNL     1      35.778 -24.796 -11.904  0.00  0.00    +0.035 C 
ENDROOT
BRANCH   2   8
ATOM      8  O   UNL     1      38.017 -23.211 -12.755  0.00  0.00    -0.382 OA
ATOM      9  H   UNL     1      38.485 -22.966 -13.568  0.00  0.00    +0.210 HD
ENDBRANCH   2   8
BRANCH   5  10
ATOM     10  O   UNL     1      39.873 -25.774 -15.640  0.00  0.00    -0.379 OA
ATOM     11  H   UNL     1      40.470 -26.298 -15.083  0.00  0.00    +0.211 HD
ENDBRANCH   5  10
BRANCH   6  12
ATOM     12  O   UNL     1      37.799 -27.353 -14.618  0.00  0.00    -0.358 OA
ATOM     13  H   UNL     1      37.001 -27.870 -14.813  0.00  0.00    +0.213 HD
ENDBRANCH   6  12
TORSDOF 3
ENDMDL
