MODEL 1
REMARK VINA RESULT:      -6.1      0.000      0.000
REMARK  Name = 7167925
REMARK  4 active torsions:
REMARK  status: ('A' for Active; 'I' for Inactive)
REMARK    1  A    between atoms: C_2  and  O_8
REMARK    2  A    between atoms: C_3  and  O_10
REMARK    3  A    between atoms: C_4  and  O_12
REMARK    4  A    between atoms: C_6  and  O_14
REMARK                            x       y       z     vdW  Elec       q    Type
REMARK                         _______ _______ _______ _____ _____    ______ ____
ROOT
ATOM      1  O   UNL     1      38.168 -24.702 -14.998  0.00  0.00    -0.329 OA
ATOM      2  C   UNL     1      36.777 -25.595 -12.654  0.00  0.00    +0.171 C 
ATOM      3  C   UNL     1      38.300 -25.471 -12.700  0.00  0.00    +0.167 C 
ATOM      4  C   UNL     1      36.119 -24.663 -13.673  0.00  0.00    +0.196 C 
ATOM      5  C   UNL     1      38.794 -25.663 -14.138  0.00  0.00    +0.147 C 
ATOM      6  C   UNL     1      36.749 -24.845 -15.057  0.00  0.00    +0.266 C 
ATOM      7  C   UNL     1      40.301 -25.472 -14.264  0.00  0.00    +0.035 C 
ENDROOT
BRANCH   2   8
ATOM      8  O   UNL     1      36.328 -25.287 -11.337  0.00  0.00    -0.379 OA
ATOM      9  H   UNL     1      35.392 -25.037 -11.364  0.00  0.00    +0.211 HD
ENDBRANCH   2   8
BRANCH   3  10
ATOM     10  O   UNL     1      38.690 -24.175 -12.244  0.00  0.00    -0.379 OA
ATOM     11  H   UNL     1      39.646 -24.062 -12.365  0.00  0.00    +0.211 HD
ENDBRANCH   3  10
BRANCH   4  12
ATOM     12  O   UNL     1      34.729 -24.972 -13.773  0.00  0.00    -0.378 OA
ATOM     13  H   UNL     1      34.450 -25.464 -12.985  0.00  0.00    +0.211 HD
ENDBRANCH   4  12
BRANCH   6  14
ATOM     14  O   UNL     1      36.200 -23.851 -15.922  0.00  0.00    -0.326 OA
ATOM     15  C   UNL     1      36.988 -22.671 -15.916  0.00  0.00    +0.177 C 
ENDBRANCH   6  14
TORSDOF 4
ENDMDL
MODEL 2
REMARK VINA RESULT:      -6.1      1.716      3.624
REMARK  Name = 7167925
REMARK  4 active torsions:
REMARK  status: ('A' for Active; 'I' for Inactive)
REMARK    1  A    between atoms: C_2  and  O_8
REMARK    2  A    between atoms: C_3  and  O_10
REMARK    3  A    between atoms: C_4  and  O_12
REMARK    4  A    between atoms: C_6  and  O_14
REMARK                            x       y       z     vdW  Elec       q    Type
REMARK                         _______ _______ _______ _____ _____    ______ ____
ROOT
ATOM      1  O   UNL     1      36.463 -24.357 -14.079  0.00  0.00    -0.329 OA
ATOM      2  C   UNL     1      36.549 -23.362 -11.390  0.00  0.00    +0.171 C 
ATOM      3  C   UNL     1      35.258 -23.878 -12.028  0.00  0.00    +0.167 C 
ATOM      4  C   UNL     1      37.777 -23.982 -12.058  0.00  0.00    +0.196 C 
ATOM      5  C   UNL     1      35.315 -23.685 -13.547  0.00  0.00    +0.147 C 
ATOM      6  C   UNL     1      37.696 -23.839 -13.580  0.00  0.00    +0.266 C 
ATOM      7  C   UNL     1      34.087 -24.254 -14.250  0.00  0.00    +0.035 C 
ENDROOT
BRANCH   2   8
ATOM      8  O   UNL     1      36.531 -23.667  -9.999  0.00  0.00    -0.379 OA
ATOM      9  H   UNL     1      36.424 -24.624  -9.879  0.00  0.00    +0.211 HD
ENDBRANCH   2   8
BRANCH   3  10
ATOM     10  O   UNL     1      35.106 -25.271 -11.742  0.00  0.00    -0.379 OA
ATOM     11  H   UNL     1      34.724 -25.719 -12.512  0.00  0.00    +0.211 HD
ENDBRANCH   3  10
BRANCH   4  12
ATOM     12  O   UNL     1      38.953 -23.308 -11.609  0.00  0.00    -0.378 OA
ATOM     13  H   UNL     1      39.586 -23.243 -12.341  0.00  0.00    +0.211 HD
ENDBRANCH   4  12
BRANCH   6  14
ATOM     14  O   UNL     1      38.788 -24.563 -14.147  0.00  0.00    -0.326 OA
ATOM     15  C   UNL     1      38.393 -25.869 -14.534  0.00  0.00    +0.177 C 
ENDBRANCH   6  14
TORSDOF 4
ENDMDL
MODEL 3
REMARK VINA RESULT:      -6.1      1.063      3.319
REMARK  Name = 7167925
REMARK  4 active torsions:
REMARK  status: ('A' for Active; 'I' for Inactive)
REMARK    1  A    between atoms: C_2  and  O_8
REMARK    2  A    between atoms: C_3  and  O_10
REMARK    3  A    between atoms: C_4  and  O_12
REMARK    4  A    between atoms: C_6  and  O_14
REMARK                            x       y       z     vdW  Elec       q    Type
REMARK                         _______ _______ _______ _____ _____    ______ ____
ROOT
ATOM      1  O   UNL     1      38.214 -24.230 -14.756  0.00  0.00    -0.329 OA
ATOM      2  C   UNL     1      35.677 -24.400 -13.427  0.00  0.00    +0.171 C 
ATOM      3  C   UNL     1      35.865 -23.622 -14.730  0.00  0.00    +0.167 C 
ATOM      4  C   UNL     1      36.735 -25.497 -13.286  0.00  0.00    +0.196 C 
ATOM      5  C   UNL     1      37.309 -23.121 -14.834  0.00  0.00    +0.147 C 
ATOM      6  C   UNL     1      38.138 -24.927 -13.513  0.00  0.00    +0.266 C 
ATOM      7  C   UNL     1      37.581 -22.404 -16.152  0.00  0.00    +0.035 C 
ENDROOT
BRANCH   2   8
ATOM      8  O   UNL     1      34.370 -24.966 -13.411  0.00  0.00    -0.379 OA
ATOM      9  H   UNL     1      34.348 -25.712 -12.793  0.00  0.00    +0.211 HD
ENDBRANCH   2   8
BRANCH   3  10
ATOM     10  O   UNL     1      35.589 -24.476 -15.843  0.00  0.00    -0.379 OA
ATOM     11  H   UNL     1      34.687 -24.314 -16.159  0.00  0.00    +0.211 HD
ENDBRANCH   3  10
BRANCH   4  12
ATOM     12  O   UNL     1      36.683 -26.040 -11.967  0.00  0.00    -0.378 OA
ATOM     13  H   UNL     1      37.545 -25.926 -11.537  0.00  0.00    +0.211 HD
ENDBRANCH   4  12
BRANCH   6  14
ATOM     14  O   UNL     1      39.059 -26.018 -13.515  0.00  0.00    -0.326 OA
ATOM     15  C   UNL     1      40.209 -25.720 -14.289  0.00  0.00    +0.177 C 
ENDBRANCH   6  14
TORSDOF 4
ENDMDL
MODEL 4
REMARK VINA RESULT:      -6.1      1.703      2.517
REMARK  Name = 7167925
REMARK  4 active torsions:
REMARK  status: ('A' for Active; 'I' for Inactive)
REMARK    1  A    between atoms: C_2  and  O_8
REMARK    2  A    between atoms: C_3  and  O_10
REMARK    3  A    between atoms: C_4  and  O_12
REMARK    4  A    between atoms: C_6  and  O_14
REMARK                            x       y       z     vdW  Elec       q    Type
REMARK                         _______ _______ _______ _____ _____    ______ ____
ROOT
ATOM      1  O   UNL     1      36.850 -23.354 -13.801  0.00  0.00    -0.329 OA
ATOM      2  C   UNL     1      37.381 -26.156 -13.489  0.00  0.00    +0.171 C 
ATOM      3  C   UNL     1      37.064 -25.249 -12.300  0.00  0.00    +0.167 C 
ATOM      4  C   UNL     1      36.799 -25.587 -14.784  0.00  0.00    +0.196 C 
ATOM      5  C   UNL     1      37.500 -23.813 -12.609  0.00  0.00    +0.147 C 
ATOM      6  C   UNL     1      37.195 -24.118 -14.956  0.00  0.00    +0.266 C 
ATOM      7  C   UNL     1      37.138 -22.843 -11.490  0.00  0.00    +0.035 C 
ENDROOT
BRANCH   2   8
ATOM      8  O   UNL     1      36.853 -27.454 -13.234  0.00  0.00    -0.379 OA
ATOM      9  H   UNL     1      36.845 -27.967 -14.057  0.00  0.00    +0.211 HD
ENDBRANCH   2   8
BRANCH   3  10
ATOM     10  O   UNL     1      35.657 -25.263 -12.048  0.00  0.00    -0.379 OA
ATOM     11  H   UNL     1      35.179 -25.069 -12.870  0.00  0.00    +0.211 HD
ENDBRANCH   3  10
BRANCH   4  12
ATOM     12  O   UNL     1      37.310 -26.319 -15.898  0.00  0.00    -0.378 OA
ATOM     13  H   UNL     1      37.469 -27.239 -15.633  0.00  0.00    +0.211 HD
ENDBRANCH   4  12
BRANCH   6  14
ATOM     14  O   UNL     1      36.503 -23.608 -16.095  0.00  0.00    -0.326 OA
ATOM     15  C   UNL     1      37.007 -22.338 -16.477  0.00  0.00    +0.177 C 
ENDBRANCH   6  14
TORSDOF 4
ENDMDL
MODEL 5
REMARK VINA RESULT:      -5.9      1.849      3.723
REMARK  Name = 7167925
REMARK  4 active torsions:
REMARK  status: ('A' for Active; 'I' for Inactive)
REMARK    1  A    between atoms: C_2  and  O_8
REMARK    2  A    between atoms: C_3  and  O_10
REMARK    3  A    between atoms: C_4  and  O_12
REMARK    4  A    between atoms: C_6  and  O_14
REMARK                            x       y       z     vdW  Elec       q    Type
REMARK                         _______ _______ _______ _____ _____    ______ ____
ROOT
ATOM      1  O   UNL     1      35.476 -23.933 -13.556  0.00  0.00    -0.329 OA
ATOM      2  C   UNL     1      36.835 -26.401 -14.098  0.00  0.00    +0.171 C 
ATOM      3  C   UNL     1      36.356 -25.471 -15.214  0.00  0.00    +0.167 C 
ATOM      4  C   UNL     1      37.060 -25.627 -12.798  0.00  0.00    +0.196 C 
ATOM      5  C   UNL     1      35.139 -24.670 -14.738  0.00  0.00    +0.147 C 
ATOM      6  C   UNL     1      35.837 -24.771 -12.458  0.00  0.00    +0.266 C 
ATOM      7  C   UNL     1      34.663 -23.665 -15.781  0.00  0.00    +0.035 C 
ENDROOT
BRANCH   2   8
ATOM      8  O   UNL     1      38.039 -27.038 -14.512  0.00  0.00    -0.379 OA
ATOM      9  H   UNL     1      38.222 -26.814 -15.437  0.00  0.00    +0.211 HD
ENDBRANCH   2   8
BRANCH   3  10
ATOM     10  O   UNL     1      37.403 -24.562 -15.562  0.00  0.00    -0.379 OA
ATOM     11  H   UNL     1      37.020 -23.705 -15.803  0.00  0.00    +0.211 HD
ENDBRANCH   3  10
BRANCH   4  12
ATOM     12  O   UNL     1      37.271 -26.547 -11.727  0.00  0.00    -0.378 OA
ATOM     13  H   UNL     1      36.456 -27.048 -11.566  0.00  0.00    +0.211 HD
ENDBRANCH   4  12
BRANCH   6  14
ATOM     14  O   UNL     1      36.165 -23.966 -11.326  0.00  0.00    -0.326 OA
ATOM     15  C   UNL     1      37.111 -22.965 -11.662  0.00  0.00    +0.177 C 
ENDBRANCH   6  14
TORSDOF 4
ENDMDL
MODEL 6
REMARK VINA RESULT:      -5.9      1.923      3.014
REMARK  Name = 7167925
REMARK  4 active torsions:
REMARK  status: ('A' for Active; 'I' for Inactive)
REMARK    1  A    between atoms: C_2  and  O_8
REMARK    2  A    between atoms: C_3  and  O_10
REMARK    3  A    between atoms: C_4  and  O_12
REMARK    4  A    between atoms: C_6  and  O_14
REMARK                            x       y       z     vdW  Elec       q    Type
REMARK                         _______ _______ _______ _____ _____    ______ ____
ROOT
ATOM      1  O   UNL     1      36.045 -25.311 -13.448  0.00  0.00    -0.329 OA
ATOM      2  C   UNL     1      38.233 -24.282 -11.905  0.00  0.00    +0.171 C 
ATOM      3  C   UNL     1      38.431 -24.900 -13.289  0.00  0.00    +0.167 C 
ATOM      4  C   UNL     1      36.810 -23.743 -11.743  0.00  0.00    +0.196 C 
ATOM      5  C   UNL     1      37.331 -25.932 -13.561  0.00  0.00    +0.147 C 
ATOM      6  C   UNL     1      35.781 -24.805 -12.140  0.00  0.00    +0.266 C 
ATOM      7  C   UNL     1      37.428 -26.528 -14.961  0.00  0.00    +0.035 C 
ENDROOT
BRANCH   2   8
ATOM      8  O   UNL     1      39.184 -23.238 -11.724  0.00  0.00    -0.379 OA
ATOM      9  H   UNL     1      39.380 -23.137 -10.780  0.00  0.00    +0.211 HD
ENDBRANCH   2   8
BRANCH   3  10
ATOM     10  O   UNL     1      38.364 -23.877 -14.285  0.00  0.00    -0.379 OA
ATOM     11  H   UNL     1      38.378 -23.007 -13.856  0.00  0.00    +0.211 HD
ENDBRANCH   3  10
BRANCH   4  12
ATOM     12  O   UNL     1      36.587 -23.395 -10.376  0.00  0.00    -0.378 OA
ATOM     13  H   UNL     1      36.733 -24.173  -9.817  0.00  0.00    +0.211 HD
ENDBRANCH   4  12
BRANCH   6  14
ATOM     14  O   UNL     1      34.490 -24.196 -12.110  0.00  0.00    -0.326 OA
ATOM     15  C   UNL     1      33.922 -24.131 -13.407  0.00  0.00    +0.177 C 
ENDBRANCH   6  14
TORSDOF 4
ENDMDL
MODEL 7
REMARK VINA RESULT:      -5.9      1.536      3.070
REMARK  Name = 7167925
REMARK  4 active torsions:
REMARK  status: ('A' for Active; 'I' for Inactive)
REMARK    1  A    between atoms: C_2  and  O_8
REMARK    2  A    between atoms: C_3  and  O_10
REMARK    3  A    between atoms: C_4  and  O_12
REMARK    4  A    between atoms: C_6  and  O_14
REMARK                            x       y       z     vdW  Elec       q    Type
REMARK                         _______ _______ _______ _____ _____    ______ ____
ROOT
ATOM      1  O   UNL     1      36.110 -23.877 -13.872  0.00  0.00    -0.329 OA
ATOM      2  C   UNL     1      38.690 -25.037 -13.397  0.00  0.00    +0.171 C 
ATOM      3  C   UNL     1      37.502 -25.283 -12.466  0.00  0.00    +0.167 C 
ATOM      4  C   UNL     1      38.218 -24.675 -14.806  0.00  0.00    +0.196 C 
ATOM      5  C   UNL     1      36.542 -24.089 -12.522  0.00  0.00    +0.147 C 
ATOM      6  C   UNL     1      37.181 -23.550 -14.757  0.00  0.00    +0.266 C 
ATOM      7  C   UNL     1      35.294 -24.309 -11.674  0.00  0.00    +0.035 C 
ENDROOT
BRANCH   2   8
ATOM      8  O   UNL     1      39.501 -26.208 -13.429  0.00  0.00    -0.379 OA
ATOM      9  H   UNL     1      38.947 -26.989 -13.279  0.00  0.00    +0.211 HD
ENDBRANCH   2   8
BRANCH   3  10
ATOM     10  O   UNL     1      36.804 -26.459 -12.880  0.00  0.00    -0.379 OA
ATOM     11  H   UNL     1      37.290 -26.887 -13.602  0.00  0.00    +0.211 HD
ENDBRANCH   3  10
BRANCH   4  12
ATOM     12  O   UNL     1      39.330 -24.223 -15.578  0.00  0.00    -0.378 OA
ATOM     13  H   UNL     1      40.095 -24.091 -14.996  0.00  0.00    +0.211 HD
ENDBRANCH   4  12
BRANCH   6  14
ATOM     14  O   UNL     1      36.675 -23.363 -16.078  0.00  0.00    -0.326 OA
ATOM     15  C   UNL     1      36.872 -22.030 -16.521  0.00  0.00    +0.177 C 
ENDBRANCH   6  14
TORSDOF 4
ENDMDL
MODEL 8
REMARK VINA RESULT:      -5.7      1.701      2.721
REMARK  Name = 7167925
REMARK  4 active torsions:
REMARK  status: ('A' for Active; 'I' for Inactive)
REMARK    1  A    between atoms: C_2  and  O_8
REMARK    2  A    between atoms: C_3  and  O_10
REMARK    3  A    between atoms: C_4  and  O_12
REMARK    4  A    between atoms: C_6  and  O_14
REMARK                            x       y       z     vdW  Elec       q    Type
REMARK                         _______ _______ _______ _____ _____    ______ ____
ROOT
ATOM      1  O   UNL     1      38.480 -24.201 -13.243  0.00  0.00    -0.329 OA
ATOM      2  C   UNL     1      36.383 -25.192 -14.931  0.00  0.00    +0.171 C 
ATOM      3  C   UNL     1      37.718 -25.921 -14.777  0.00  0.00    +0.167 C 
ATOM      4  C   UNL     1      36.087 -24.322 -13.708  0.00  0.00    +0.196 C 
ATOM      5  C   UNL     1      38.824 -24.915 -14.437  0.00  0.00    +0.147 C 
ATOM      6  C   UNL     1      37.286 -23.429 -13.377  0.00  0.00    +0.266 C 
ATOM      7  C   UNL     1      40.168 -25.591 -14.192  0.00  0.00    +0.035 C 
ENDROOT
BRANCH   2   8
ATOM      8  O   UNL     1      35.350 -26.155 -15.118  0.00  0.00    -0.379 OA
ATOM      9  H   UNL     1      35.502 -26.637 -15.945  0.00  0.00    +0.211 HD
ENDBRANCH   2   8
BRANCH   3  10
ATOM     10  O   UNL     1      37.622 -26.879 -13.721  0.00  0.00    -0.379 OA
ATOM     11  H   UNL     1      38.433 -27.410 -13.691  0.00  0.00    +0.211 HD
ENDBRANCH   3  10
BRANCH   4  12
ATOM     12  O   UNL     1      34.967 -23.481 -13.982  0.00  0.00    -0.378 OA
ATOM     13  H   UNL     1      34.489 -23.302 -13.158  0.00  0.00    +0.211 HD
ENDBRANCH   4  12
BRANCH   6  14
ATOM     14  O   UNL     1      37.006 -22.758 -12.149  0.00  0.00    -0.326 OA
ATOM     15  C   UNL     1      36.680 -23.679 -11.121  0.00  0.00    +0.177 C 
ENDBRANCH   6  14
TORSDOF 4
ENDMDL
MODEL 9
REMARK VINA RESULT:      -5.7      1.834      2.889
REMARK  Name = 7167925
REMARK  4 active torsions:
REMARK  status: ('A' for Active; 'I' for Inactive)
REMARK    1  A    between atoms: C_2  and  O_8
REMARK    2  A    between atoms: C_3  and  O_10
REMARK    3  A    between atoms: C_4  and  O_12
REMARK    4  A    between atoms: C_6  and  O_14
REMARK                            x       y       z     vdW  Elec       q    Type
REMARK                         _______ _______ _______ _____ _____    ______ ____
ROOT
ATOM      1  O   UNL     1      36.017 -24.036 -13.298  0.00  0.00    -0.329 OA
ATOM      2  C   UNL     1      37.966 -25.774 -14.484  0.00  0.00    +0.171 C 
ATOM      3  C   UNL     1      38.233 -25.017 -13.183  0.00  0.00    +0.167 C 
ATOM      4  C   UNL     1      36.466 -25.981 -14.701  0.00  0.00    +0.196 C 
ATOM      5  C   UNL     1      37.409 -23.726 -13.153  0.00  0.00    +0.147 C 
ATOM      6  C   UNL     1      35.710 -24.659 -14.545  0.00  0.00    +0.266 C 
ATOM      7  C   UNL     1      37.571 -22.964 -11.843  0.00  0.00    +0.035 C 
ENDROOT
BRANCH   2   8
ATOM      8  O   UNL     1      38.639 -27.029 -14.436  0.00  0.00    -0.379 OA
ATOM      9  H   UNL     1      39.597 -26.883 -14.463  0.00  0.00    +0.211 HD
ENDBRANCH   2   8
BRANCH   3  10
ATOM     10  O   UNL     1      37.860 -25.832 -12.069  0.00  0.00    -0.379 OA
ATOM     11  H   UNL     1      37.366 -25.298 -11.429  0.00  0.00    +0.211 HD
ENDBRANCH   3  10
BRANCH   4  12
ATOM     12  O   UNL     1      36.239 -26.470 -16.023  0.00  0.00    -0.378 OA
ATOM     13  H   UNL     1      37.070 -26.816 -16.386  0.00  0.00    +0.211 HD
ENDBRANCH   4  12
BRANCH   6  14
ATOM     14  O   UNL     1      34.312 -24.943 -14.610  0.00  0.00    -0.326 OA
ATOM     15  C   UNL     1      33.586 -24.173 -13.666  0.00  0.00    +0.177 C 
ENDBRANCH   6  14
TORSDOF 4
ENDMDL
