MODEL 1
REMARK VINA RESULT:      -8.7      0.000      0.000
REMARK  Name = 40632
REMARK  1 active torsions:
REMARK  status: ('A' for Active; 'I' for Inactive)
REMARK    1  A    between atoms: N_2  and  C_9
REMARK                            x       y       z     vdW  Elec       q    Type
REMARK                         _______ _______ _______ _____ _____    ______ ____
ROOT
ATOM      1  O   UNL     1      35.014 -19.567 -23.786  0.00  0.00    -0.269 OA
ATOM      2  N   UNL     1      34.662 -18.414 -21.747  0.00  0.00    -0.233 N 
ATOM      3  C   UNL     1      34.581 -17.148 -21.160  0.00  0.00    +0.068 C 
ATOM      4  C   UNL     1      34.625 -16.009 -21.866  0.00  0.00    -0.006 C 
ATOM      5  C   UNL     1      34.832 -18.530 -23.149  0.00  0.00    +0.257 C 
ATOM      6  C   UNL     1      34.755 -16.077 -23.299  0.00  0.00    +0.002 C 
ATOM      7  C   UNL     1      34.843 -17.253 -23.923  0.00  0.00    +0.058 C 
ATOM      8  C   UNL     1      34.522 -14.651 -21.244  0.00  0.00    +0.032 C 
ENDROOT
BRANCH   2   9
ATOM      9  C   UNL     1      34.598 -19.609 -20.927  0.00  0.00    +0.058 C 
ATOM     10  C   UNL     1      33.361 -20.103 -20.525  0.00  0.00    +0.015 C 
ATOM     11  C   UNL     1      35.773 -20.248 -20.550  0.00  0.00    +0.015 C 
ATOM     12  C   UNL     1      33.299 -21.252 -19.737  0.00  0.00    +0.001 C 
ATOM     13  C   UNL     1      35.711 -21.398 -19.761  0.00  0.00    +0.001 C 
ATOM     14  C   UNL     1      34.474 -21.900 -19.356  0.00  0.00    +0.000 C 
ENDBRANCH   2   9
TORSDOF 1
ENDMDL
MODEL 2
REMARK VINA RESULT:      -8.7      0.084      1.294
REMARK  Name = 40632
REMARK  1 active torsions:
REMARK  status: ('A' for Active; 'I' for Inactive)
REMARK    1  A    between atoms: N_2  and  C_9
REMARK                            x       y       z     vdW  Elec       q    Type
REMARK                         _______ _______ _______ _____ _____    ______ ____
ROOT
ATOM      1  O   UNL     1      34.987 -19.515 -23.809  0.00  0.00    -0.269 OA
ATOM      2  N   UNL     1      34.626 -18.361 -21.772  0.00  0.00    -0.233 N 
ATOM      3  C   UNL     1      34.553 -17.095 -21.184  0.00  0.00    +0.068 C 
ATOM      4  C   UNL     1      34.618 -15.955 -21.888  0.00  0.00    -0.006 C 
ATOM      5  C   UNL     1      34.811 -18.478 -23.172  0.00  0.00    +0.257 C 
ATOM      6  C   UNL     1      34.764 -16.023 -23.319  0.00  0.00    +0.002 C 
ATOM      7  C   UNL     1      34.846 -17.199 -23.944  0.00  0.00    +0.058 C 
ATOM      8  C   UNL     1      34.525 -14.598 -21.265  0.00  0.00    +0.032 C 
ENDROOT
BRANCH   2   9
ATOM      9  C   UNL     1      34.538 -19.557 -20.955  0.00  0.00    +0.058 C 
ATOM     10  C   UNL     1      35.701 -20.201 -20.549  0.00  0.00    +0.015 C 
ATOM     11  C   UNL     1      33.290 -20.047 -20.586  0.00  0.00    +0.015 C 
ATOM     12  C   UNL     1      35.616 -21.350 -19.763  0.00  0.00    +0.001 C 
ATOM     13  C   UNL     1      33.205 -21.197 -19.799  0.00  0.00    +0.001 C 
ATOM     14  C   UNL     1      34.369 -21.847 -19.388  0.00  0.00    +0.000 C 
ENDBRANCH   2   9
TORSDOF 1
ENDMDL
MODEL 3
REMARK VINA RESULT:      -8.5      1.488      2.678
REMARK  Name = 40632
REMARK  1 active torsions:
REMARK  status: ('A' for Active; 'I' for Inactive)
REMARK    1  A    between atoms: N_2  and  C_9
REMARK                            x       y       z     vdW  Elec       q    Type
REMARK                         _______ _______ _______ _____ _____    ______ ____
ROOT
ATOM      1  O   UNL     1      34.972 -16.468 -20.102  0.00  0.00    -0.269 OA
ATOM      2  N   UNL     1      34.944 -18.007 -21.903  0.00  0.00    -0.233 N 
ATOM      3  C   UNL     1      34.790 -18.130 -23.286  0.00  0.00    +0.068 C 
ATOM      4  C   UNL     1      34.667 -17.077 -24.107  0.00  0.00    -0.006 C 
ATOM      5  C   UNL     1      34.942 -16.723 -21.306  0.00  0.00    +0.257 C 
ATOM      6  C   UNL     1      34.702 -15.748 -23.551  0.00  0.00    +0.002 C 
ATOM      7  C   UNL     1      34.841 -15.559 -22.237  0.00  0.00    +0.058 C 
ATOM      8  C   UNL     1      34.518 -17.202 -25.591  0.00  0.00    +0.032 C 
ENDROOT
BRANCH   2   9
ATOM      9  C   UNL     1      35.082 -19.189 -21.071  0.00  0.00    +0.058 C 
ATOM     10  C   UNL     1      36.349 -19.620 -20.693  0.00  0.00    +0.015 C 
ATOM     11  C   UNL     1      33.947 -19.878 -20.662  0.00  0.00    +0.015 C 
ATOM     12  C   UNL     1      36.482 -20.755 -19.894  0.00  0.00    +0.001 C 
ATOM     13  C   UNL     1      34.079 -21.014 -19.862  0.00  0.00    +0.001 C 
ATOM     14  C   UNL     1      35.347 -21.452 -19.478  0.00  0.00    +0.000 C 
ENDBRANCH   2   9
TORSDOF 1
ENDMDL
MODEL 4
REMARK VINA RESULT:      -8.2      1.458      5.137
REMARK  Name = 40632
REMARK  1 active torsions:
REMARK  status: ('A' for Active; 'I' for Inactive)
REMARK    1  A    between atoms: N_2  and  C_9
REMARK                            x       y       z     vdW  Elec       q    Type
REMARK                         _______ _______ _______ _____ _____    ______ ____
ROOT
ATOM      1  O   UNL     1      32.288 -20.213 -20.972  0.00  0.00    -0.269 OA
ATOM      2  N   UNL     1      34.634 -19.988 -20.734  0.00  0.00    -0.233 N 
ATOM      3  C   UNL     1      35.745 -20.420 -20.005  0.00  0.00    +0.068 C 
ATOM      4  C   UNL     1      35.684 -21.387 -19.078  0.00  0.00    -0.006 C 
ATOM      5  C   UNL     1      33.362 -20.558 -20.480  0.00  0.00    +0.257 C 
ATOM      6  C   UNL     1      34.420 -22.026 -18.815  0.00  0.00    +0.002 C 
ATOM      7  C   UNL     1      33.317 -21.658 -19.471  0.00  0.00    +0.058 C 
ATOM      8  C   UNL     1      36.874 -21.865 -18.307  0.00  0.00    +0.032 C 
ENDROOT
BRANCH   2   9
ATOM      9  C   UNL     1      34.770 -18.943 -21.731  0.00  0.00    +0.058 C 
ATOM     10  C   UNL     1      34.839 -19.281 -23.078  0.00  0.00    +0.015 C 
ATOM     11  C   UNL     1      34.832 -17.613 -21.330  0.00  0.00    +0.015 C 
ATOM     12  C   UNL     1      34.970 -18.277 -24.037  0.00  0.00    +0.001 C 
ATOM     13  C   UNL     1      34.963 -16.608 -22.289  0.00  0.00    +0.001 C 
ATOM     14  C   UNL     1      35.031 -16.941 -23.642  0.00  0.00    +0.000 C 
ENDBRANCH   2   9
TORSDOF 1
ENDMDL
MODEL 5
REMARK VINA RESULT:      -8.1      1.984      2.855
REMARK  Name = 40632
REMARK  1 active torsions:
REMARK  status: ('A' for Active; 'I' for Inactive)
REMARK    1  A    between atoms: N_2  and  C_9
REMARK                            x       y       z     vdW  Elec       q    Type
REMARK                         _______ _______ _______ _____ _____    ______ ____
ROOT
ATOM      1  O   UNL     1      34.860 -15.455 -20.210  0.00  0.00    -0.269 OA
ATOM      2  N   UNL     1      34.636 -16.756 -22.176  0.00  0.00    -0.233 N 
ATOM      3  C   UNL     1      34.286 -16.715 -23.529  0.00  0.00    +0.068 C 
ATOM      4  C   UNL     1      33.999 -15.577 -24.178  0.00  0.00    -0.006 C 
ATOM      5  C   UNL     1      34.665 -15.559 -21.420  0.00  0.00    +0.257 C 
ATOM      6  C   UNL     1      34.056 -14.329 -23.461  0.00  0.00    +0.002 C 
ATOM      7  C   UNL     1      34.378 -14.297 -22.166  0.00  0.00    +0.058 C 
ATOM      8  C   UNL     1      33.639 -15.526 -25.629  0.00  0.00    +0.032 C 
ENDROOT
BRANCH   2   9
ATOM      9  C   UNL     1      34.945 -18.021 -21.536  0.00  0.00    +0.058 C 
ATOM     10  C   UNL     1      33.913 -18.867 -21.146  0.00  0.00    +0.015 C 
ATOM     11  C   UNL     1      36.272 -18.374 -21.317  0.00  0.00    +0.015 C 
ATOM     12  C   UNL     1      34.211 -20.083 -20.531  0.00  0.00    +0.001 C 
ATOM     13  C   UNL     1      36.571 -19.591 -20.702  0.00  0.00    +0.001 C 
ATOM     14  C   UNL     1      35.539 -20.445 -20.309  0.00  0.00    +0.000 C 
ENDBRANCH   2   9
TORSDOF 1
ENDMDL
MODEL 6
REMARK VINA RESULT:      -8.1      1.379      5.081
REMARK  Name = 40632
REMARK  1 active torsions:
REMARK  status: ('A' for Active; 'I' for Inactive)
REMARK    1  A    between atoms: N_2  and  C_9
REMARK                            x       y       z     vdW  Elec       q    Type
REMARK                         _______ _______ _______ _____ _____    ______ ____
ROOT
ATOM      1  O   UNL     1      37.736 -19.069 -21.242  0.00  0.00    -0.269 OA
ATOM      2  N   UNL     1      35.377 -19.285 -21.257  0.00  0.00    -0.233 N 
ATOM      3  C   UNL     1      34.304 -20.026 -20.755  0.00  0.00    +0.068 C 
ATOM      4  C   UNL     1      34.446 -20.993 -19.837  0.00  0.00    -0.006 C 
ATOM      5  C   UNL     1      36.694 -19.569 -20.819  0.00  0.00    +0.257 C 
ATOM      6  C   UNL     1      35.761 -21.289 -19.330  0.00  0.00    +0.002 C 
ATOM      7  C   UNL     1      36.830 -20.625 -19.771  0.00  0.00    +0.058 C 
ATOM      8  C   UNL     1      33.297 -21.778 -19.284  0.00  0.00    +0.032 C 
ENDROOT
BRANCH   2   9
ATOM      9  C   UNL     1      35.154 -18.244 -22.243  0.00  0.00    +0.058 C 
ATOM     10  C   UNL     1      35.092 -18.574 -23.592  0.00  0.00    +0.015 C 
ATOM     11  C   UNL     1      35.006 -16.925 -21.828  0.00  0.00    +0.015 C 
ATOM     12  C   UNL     1      34.877 -17.573 -24.539  0.00  0.00    +0.001 C 
ATOM     13  C   UNL     1      34.791 -15.923 -22.776  0.00  0.00    +0.001 C 
ATOM     14  C   UNL     1      34.726 -16.248 -24.131  0.00  0.00    +0.000 C 
ENDBRANCH   2   9
TORSDOF 1
ENDMDL
MODEL 7
REMARK VINA RESULT:      -7.7      2.648      5.813
REMARK  Name = 40632
REMARK  1 active torsions:
REMARK  status: ('A' for Active; 'I' for Inactive)
REMARK    1  A    between atoms: N_2  and  C_9
REMARK                            x       y       z     vdW  Elec       q    Type
REMARK                         _______ _______ _______ _____ _____    ______ ____
ROOT
ATOM      1  O   UNL     1      35.039 -15.998 -20.127  0.00  0.00    -0.269 OA
ATOM      2  N   UNL     1      34.314 -16.312 -22.360  0.00  0.00    -0.233 N 
ATOM      3  C   UNL     1      34.335 -17.192 -23.446  0.00  0.00    +0.068 C 
ATOM      4  C   UNL     1      34.861 -18.423 -23.381  0.00  0.00    -0.006 C 
ATOM      5  C   UNL     1      34.900 -16.698 -21.130  0.00  0.00    +0.257 C 
ATOM      6  C   UNL     1      35.431 -18.877 -22.138  0.00  0.00    +0.002 C 
ATOM      7  C   UNL     1      35.450 -18.085 -21.064  0.00  0.00    +0.058 C 
ATOM      8  C   UNL     1      34.872 -19.376 -24.535  0.00  0.00    +0.032 C 
ENDROOT
BRANCH   2   9
ATOM      9  C   UNL     1      33.719 -14.995 -22.494  0.00  0.00    +0.058 C 
ATOM     10  C   UNL     1      32.686 -14.617 -21.643  0.00  0.00    +0.015 C 
ATOM     11  C   UNL     1      34.186 -14.125 -23.472  0.00  0.00    +0.015 C 
ATOM     12  C   UNL     1      32.114 -13.351 -21.771  0.00  0.00    +0.001 C 
ATOM     13  C   UNL     1      33.613 -12.858 -23.601  0.00  0.00    +0.001 C 
ATOM     14  C   UNL     1      32.578 -12.472 -22.749  0.00  0.00    +0.000 C 
ENDBRANCH   2   9
TORSDOF 1
ENDMDL
MODEL 8
REMARK VINA RESULT:      -7.6      5.062      6.815
REMARK  Name = 40632
REMARK  1 active torsions:
REMARK  status: ('A' for Active; 'I' for Inactive)
REMARK    1  A    between atoms: N_2  and  C_9
REMARK                            x       y       z     vdW  Elec       q    Type
REMARK                         _______ _______ _______ _____ _____    ______ ____
ROOT
ATOM      1  O   UNL     1      34.467 -11.389 -25.001  0.00  0.00    -0.269 OA
ATOM      2  N   UNL     1      33.099 -12.648 -23.534  0.00  0.00    -0.233 N 
ATOM      3  C   UNL     1      32.194 -12.561 -22.473  0.00  0.00    +0.068 C 
ATOM      4  C   UNL     1      31.737 -11.395 -21.993  0.00  0.00    -0.006 C 
ATOM      5  C   UNL     1      33.600 -11.466 -24.131  0.00  0.00    +0.257 C 
ATOM      6  C   UNL     1      32.186 -10.166 -22.595  0.00  0.00    +0.002 C 
ATOM      7  C   UNL     1      33.054 -10.177 -23.609  0.00  0.00    +0.058 C 
ATOM      8  C   UNL     1      30.756 -11.296 -20.867  0.00  0.00    +0.032 C 
ENDROOT
BRANCH   2   9
ATOM      9  C   UNL     1      33.546 -13.943 -24.013  0.00  0.00    +0.058 C 
ATOM     10  C   UNL     1      33.096 -14.417 -25.240  0.00  0.00    +0.015 C 
ATOM     11  C   UNL     1      34.420 -14.698 -23.238  0.00  0.00    +0.015 C 
ATOM     12  C   UNL     1      33.527 -15.661 -25.701  0.00  0.00    +0.001 C 
ATOM     13  C   UNL     1      34.851 -15.944 -23.699  0.00  0.00    +0.001 C 
ATOM     14  C   UNL     1      34.404 -16.424 -24.930  0.00  0.00    +0.000 C 
ENDBRANCH   2   9
TORSDOF 1
ENDMDL
MODEL 9
REMARK VINA RESULT:      -7.5      3.438      5.010
REMARK  Name = 40632
REMARK  1 active torsions:
REMARK  status: ('A' for Active; 'I' for Inactive)
REMARK    1  A    between atoms: N_2  and  C_9
REMARK                            x       y       z     vdW  Elec       q    Type
REMARK                         _______ _______ _______ _____ _____    ______ ____
ROOT
ATOM      1  O   UNL     1      32.144 -15.318 -21.424  0.00  0.00    -0.269 OA
ATOM      2  N   UNL     1      33.616 -14.566 -23.120  0.00  0.00    -0.233 N 
ATOM      3  C   UNL     1      33.977 -13.465 -23.902  0.00  0.00    +0.068 C 
ATOM      4  C   UNL     1      33.450 -12.243 -23.735  0.00  0.00    -0.006 C 
ATOM      5  C   UNL     1      32.626 -14.423 -22.117  0.00  0.00    +0.257 C 
ATOM      6  C   UNL     1      32.470 -12.039 -22.699  0.00  0.00    +0.002 C 
ATOM      7  C   UNL     1      32.076 -13.048 -21.920  0.00  0.00    +0.058 C 
ATOM      8  C   UNL     1      33.844 -11.057 -24.558  0.00  0.00    +0.032 C 
ENDROOT
BRANCH   2   9
ATOM      9  C   UNL     1      34.232 -15.860 -23.346  0.00  0.00    +0.058 C 
ATOM     10  C   UNL     1      34.114 -16.472 -24.590  0.00  0.00    +0.015 C 
ATOM     11  C   UNL     1      34.933 -16.477 -22.316  0.00  0.00    +0.015 C 
ATOM     12  C   UNL     1      34.706 -17.716 -24.806  0.00  0.00    +0.001 C 
ATOM     13  C   UNL     1      35.526 -17.722 -22.533  0.00  0.00    +0.001 C 
ATOM     14  C   UNL     1      35.412 -18.340 -23.779  0.00  0.00    +0.000 C 
ENDBRANCH   2   9
TORSDOF 1
ENDMDL
