MODEL 1
REMARK VINA RESULT:     -11.8      0.000      0.000
REMARK  Name = 9875401
REMARK  5 active torsions:
REMARK  status: ('A' for Active; 'I' for Inactive)
REMARK    1  A    between atoms: N_3  and  C_7
REMARK    2  A    between atoms: C_4  and  C_20
REMARK    3  A    between atoms: C_8  and  N_15
REMARK    4  A    between atoms: C_20  and  N_22
REMARK    5  A    between atoms: C_23  and  C_27
REMARK                            x       y       z     vdW  Elec       q    Type
REMARK                         _______ _______ _______ _____ _____    ______ ____
ROOT
ATOM      1  O   UNL     1      33.986 -20.284 -20.940  0.00  0.00    -0.434 OA
ATOM      2  O   UNL     1      32.698 -21.079 -19.249  0.00  0.00    -0.226 OA
ATOM      3  N   UNL     1      35.049 -21.352 -19.259  0.00  0.00    -0.221 N 
ATOM      4  C   UNL     1      35.387 -20.074 -21.159  0.00  0.00    +0.210 C 
ATOM      5  C   UNL     1      36.064 -21.067 -20.238  0.00  0.00    +0.147 C 
ATOM      6  C   UNL     1      33.811 -20.927 -19.735  0.00  0.00    +0.409 C 
ENDROOT
BRANCH   3   7
ATOM      7  C   UNL     1      35.317 -22.060 -18.053  0.00  0.00    +0.057 C 
ATOM      8  C   UNL     1      35.841 -23.444 -15.695  0.00  0.00    +0.054 C 
ATOM      9  C   UNL     1      36.565 -21.948 -17.441  0.00  0.00    +0.016 C 
ATOM     10  C   UNL     1      34.331 -22.865 -17.483  0.00  0.00    +0.016 C 
ATOM     11  C   UNL     1      36.828 -22.641 -16.260  0.00  0.00    +0.016 C 
ATOM     12  C   UNL     1      34.593 -23.559 -16.302  0.00  0.00    +0.016 C 
BRANCH   8  15
ATOM     13  O   UNL     1      36.384 -25.476 -11.998  0.00  0.00    -0.343 OA
ATOM     14  O   UNL     1      36.817 -26.171 -15.474  0.00  0.00    -0.272 OA
ATOM     15  N   UNL     1      36.113 -24.160 -14.472  0.00  0.00    -0.254 N 
ATOM     16  C   UNL     1      35.645 -23.575 -13.209  0.00  0.00    +0.130 C 
ATOM     17  C   UNL     1      36.449 -24.058 -12.018  0.00  0.00    +0.165 C 
ATOM     18  C   UNL     1      36.637 -25.464 -14.479  0.00  0.00    +0.260 C 
ATOM     19  C   UNL     1      37.049 -26.011 -13.117  0.00  0.00    +0.228 C 
ENDBRANCH   8  15
ENDBRANCH   3   7
BRANCH   4  20
ATOM     20  C   UNL     1      35.725 -18.626 -20.832  0.00  0.00    +0.135 C 
BRANCH  20  22
ATOM     21  O   UNL     1      35.005 -15.946 -20.335  0.00  0.00    -0.270 OA
ATOM     22  N   UNL     1      35.131 -17.729 -21.779  0.00  0.00    -0.297 N 
ATOM     23  C   UNL     1      34.799 -16.408 -21.459  0.00  0.00    +0.252 C 
ATOM     24  H   UNL     1      34.948 -18.056 -22.689  0.00  0.00    +0.150 HD
BRANCH  23  27
ATOM     25 CL   UNL     1      33.153 -14.704 -26.396  0.00  0.00    -0.075 Cl
ATOM     26  S   UNL     1      34.278 -16.236 -24.114  0.00  0.00    -0.071 S 
ATOM     27  C   UNL     1      34.226 -15.603 -22.546  0.00  0.00    +0.084 C 
ATOM     28  C   UNL     1      33.647 -14.386 -22.447  0.00  0.00    +0.012 C 
ATOM     29  C   UNL     1      33.215 -13.929 -23.727  0.00  0.00    +0.019 C 
ATOM     30  C   UNL     1      33.497 -14.839 -24.722  0.00  0.00    +0.087 C 
ENDBRANCH  23  27
ENDBRANCH  20  22
ENDBRANCH   4  20
TORSDOF 5
ENDMDL
MODEL 2
REMARK VINA RESULT:     -11.4      3.376      5.375
REMARK  Name = 9875401
REMARK  5 active torsions:
REMARK  status: ('A' for Active; 'I' for Inactive)
REMARK    1  A    between atoms: N_3  and  C_7
REMARK    2  A    between atoms: C_4  and  C_20
REMARK    3  A    between atoms: C_8  and  N_15
REMARK    4  A    between atoms: C_20  and  N_22
REMARK    5  A    between atoms: C_23  and  C_27
REMARK                            x       y       z     vdW  Elec       q    Type
REMARK                         _______ _______ _______ _____ _____    ______ ____
ROOT
ATOM      1  O   UNL     1      34.758 -16.925 -24.892  0.00  0.00    -0.434 OA
ATOM      2  O   UNL     1      34.267 -19.139 -24.813  0.00  0.00    -0.226 OA
ATOM      3  N   UNL     1      34.881 -17.929 -22.874  0.00  0.00    -0.221 N 
ATOM      4  C   UNL     1      34.936 -15.873 -23.934  0.00  0.00    +0.210 C 
ATOM      5  C   UNL     1      35.353 -16.586 -22.665  0.00  0.00    +0.147 C 
ATOM      6  C   UNL     1      34.593 -18.117 -24.223  0.00  0.00    +0.409 C 
ENDROOT
BRANCH   3   7
ATOM      7  C   UNL     1      34.841 -18.903 -21.835  0.00  0.00    +0.057 C 
ATOM      8  C   UNL     1      34.763 -20.807 -19.806  0.00  0.00    +0.054 C 
ATOM      9  C   UNL     1      36.029 -19.388 -21.287  0.00  0.00    +0.016 C 
ATOM     10  C   UNL     1      33.615 -19.373 -21.366  0.00  0.00    +0.016 C 
ATOM     11  C   UNL     1      35.990 -20.341 -20.271  0.00  0.00    +0.016 C 
ATOM     12  C   UNL     1      33.575 -20.326 -20.349  0.00  0.00    +0.016 C 
BRANCH   8  15
ATOM     13  O   UNL     1      34.557 -23.904 -16.897  0.00  0.00    -0.343 OA
ATOM     14  O   UNL     1      36.872 -21.374 -17.891  0.00  0.00    -0.272 OA
ATOM     15  N   UNL     1      34.723 -21.793 -18.753  0.00  0.00    -0.254 N 
ATOM     16  C   UNL     1      33.630 -22.775 -18.767  0.00  0.00    +0.130 C 
ATOM     17  C   UNL     1      33.350 -23.342 -17.390  0.00  0.00    +0.165 C 
ATOM     18  C   UNL     1      35.783 -21.948 -17.844  0.00  0.00    +0.260 C 
ATOM     19  C   UNL     1      35.512 -22.893 -16.678  0.00  0.00    +0.228 C 
ENDBRANCH   8  15
ENDBRANCH   3   7
BRANCH   4  20
ATOM     20  C   UNL     1      33.626 -15.111 -23.790  0.00  0.00    +0.135 C 
BRANCH  20  22
ATOM     21  O   UNL     1      33.363 -13.215 -25.860  0.00  0.00    -0.270 OA
ATOM     22  N   UNL     1      33.857 -13.701 -23.669  0.00  0.00    -0.297 N 
ATOM     23  C   UNL     1      33.706 -12.819 -24.744  0.00  0.00    +0.252 C 
ATOM     24  H   UNL     1      34.133 -13.340 -22.796  0.00  0.00    +0.150 HD
BRANCH  23  27
ATOM     25 CL   UNL     1      33.326  -7.768 -22.662  0.00  0.00    -0.075 Cl
ATOM     26  S   UNL     1      32.939 -10.636 -23.332  0.00  0.00    -0.071 S 
ATOM     27  C   UNL     1      33.948 -11.399 -24.456  0.00  0.00    +0.084 C 
ATOM     28  C   UNL     1      34.901 -10.604 -24.990  0.00  0.00    +0.012 C 
ATOM     29  C   UNL     1      34.812  -9.285 -24.457  0.00  0.00    +0.019 C 
ATOM     30  C   UNL     1      33.788  -9.164 -23.544  0.00  0.00    +0.087 C 
ENDBRANCH  23  27
ENDBRANCH  20  22
ENDBRANCH   4  20
TORSDOF 5
ENDMDL
MODEL 3
REMARK VINA RESULT:     -11.2      5.678     12.992
REMARK  Name = 9875401
REMARK  5 active torsions:
REMARK  status: ('A' for Active; 'I' for Inactive)
REMARK    1  A    between atoms: N_3  and  C_7
REMARK    2  A    between atoms: C_4  and  C_20
REMARK    3  A    between atoms: C_8  and  N_15
REMARK    4  A    between atoms: C_20  and  N_22
REMARK    5  A    between atoms: C_23  and  C_27
REMARK                            x       y       z     vdW  Elec       q    Type
REMARK                         _______ _______ _______ _____ _____    ______ ____
ROOT
ATOM      1  O   UNL     1      33.506 -15.449 -24.246  0.00  0.00    -0.434 OA
ATOM      2  O   UNL     1      33.446 -13.582 -25.535  0.00  0.00    -0.226 OA
ATOM      3  N   UNL     1      32.947 -13.516 -23.222  0.00  0.00    -0.221 N 
ATOM      4  C   UNL     1      33.488 -15.734 -22.841  0.00  0.00    +0.210 C 
ATOM      5  C   UNL     1      32.790 -14.541 -22.225  0.00  0.00    +0.147 C 
ATOM      6  C   UNL     1      33.316 -14.098 -24.432  0.00  0.00    +0.409 C 
ENDROOT
BRANCH   3   7
ATOM      7  C   UNL     1      32.652 -12.146 -22.974  0.00  0.00    +0.057 C 
ATOM      8  C   UNL     1      32.074  -9.466 -22.490  0.00  0.00    +0.054 C 
ATOM      9  C   UNL     1      31.630 -11.801 -22.090  0.00  0.00    +0.016 C 
ATOM     10  C   UNL     1      33.384 -11.147 -23.616  0.00  0.00    +0.016 C 
ATOM     11  C   UNL     1      31.340 -10.459 -21.847  0.00  0.00    +0.016 C 
ATOM     12  C   UNL     1      33.095  -9.804 -23.373  0.00  0.00    +0.016 C 
BRANCH   8  15
ATOM     13  O   UNL     1      30.926  -5.422 -21.838  0.00  0.00    -0.343 OA
ATOM     14  O   UNL     1      32.639  -7.995 -20.050  0.00  0.00    -0.272 OA
ATOM     15  N   UNL     1      31.775  -8.077 -22.238  0.00  0.00    -0.254 N 
ATOM     16  C   UNL     1      30.898  -7.375 -23.185  0.00  0.00    +0.130 C 
ATOM     17  C   UNL     1      31.119  -5.876 -23.169  0.00  0.00    +0.165 C 
ATOM     18  C   UNL     1      32.142  -7.447 -21.036  0.00  0.00    +0.260 C 
ATOM     19  C   UNL     1      31.931  -5.938 -20.998  0.00  0.00    +0.228 C 
ENDBRANCH   8  15
ENDBRANCH   3   7
BRANCH   4  20
ATOM     20  C   UNL     1      34.920 -15.907 -22.356  0.00  0.00    +0.135 C 
BRANCH  20  22
ATOM     21  O   UNL     1      35.728 -18.454 -23.255  0.00  0.00    -0.270 OA
ATOM     22  N   UNL     1      35.054 -17.079 -21.542  0.00  0.00    -0.297 N 
ATOM     23  C   UNL     1      35.461 -18.314 -22.060  0.00  0.00    +0.252 C 
ATOM     24  H   UNL     1      34.850 -17.014 -20.581  0.00  0.00    +0.150 HD
BRANCH  23  27
ATOM     25 CL   UNL     1      34.279 -22.462 -18.685  0.00  0.00    -0.075 Cl
ATOM     26  S   UNL     1      34.167 -20.220 -20.630  0.00  0.00    -0.071 S 
ATOM     27  C   UNL     1      35.581 -19.414 -21.094  0.00  0.00    +0.084 C 
ATOM     28  C   UNL     1      36.710 -19.876 -20.513  0.00  0.00    +0.012 C 
ATOM     29  C   UNL     1      36.417 -20.956 -19.631  0.00  0.00    +0.019 C 
ATOM     30  C   UNL     1      35.070 -21.246 -19.600  0.00  0.00    +0.087 C 
ENDBRANCH  23  27
ENDBRANCH  20  22
ENDBRANCH   4  20
TORSDOF 5
ENDMDL
MODEL 4
REMARK VINA RESULT:     -11.0      0.825      1.167
REMARK  Name = 9875401
REMARK  5 active torsions:
REMARK  status: ('A' for Active; 'I' for Inactive)
REMARK    1  A    between atoms: N_3  and  C_7
REMARK    2  A    between atoms: C_4  and  C_20
REMARK    3  A    between atoms: C_8  and  N_15
REMARK    4  A    between atoms: C_20  and  N_22
REMARK    5  A    between atoms: C_23  and  C_27
REMARK                            x       y       z     vdW  Elec       q    Type
REMARK                         _______ _______ _______ _____ _____    ______ ____
ROOT
ATOM      1  O   UNL     1      34.082 -20.285 -20.919  0.00  0.00    -0.434 OA
ATOM      2  O   UNL     1      32.859 -21.118 -19.200  0.00  0.00    -0.226 OA
ATOM      3  N   UNL     1      35.218 -21.293 -19.250  0.00  0.00    -0.221 N 
ATOM      4  C   UNL     1      35.469 -20.019 -21.166  0.00  0.00    +0.210 C 
ATOM      5  C   UNL     1      36.203 -20.974 -20.249  0.00  0.00    +0.147 C 
ATOM      6  C   UNL     1      33.956 -20.924 -19.706  0.00  0.00    +0.409 C 
ENDROOT
BRANCH   3   7
ATOM      7  C   UNL     1      35.537 -21.979 -18.044  0.00  0.00    +0.057 C 
ATOM      8  C   UNL     1      36.160 -23.321 -15.685  0.00  0.00    +0.054 C 
ATOM      9  C   UNL     1      36.783 -21.795 -17.445  0.00  0.00    +0.016 C 
ATOM     10  C   UNL     1      34.604 -22.836 -17.460  0.00  0.00    +0.016 C 
ATOM     11  C   UNL     1      37.096 -22.467 -16.264  0.00  0.00    +0.016 C 
ATOM     12  C   UNL     1      34.915 -23.508 -16.279  0.00  0.00    +0.016 C 
BRANCH   8  15
ATOM     13  O   UNL     1      37.365 -25.232 -12.081  0.00  0.00    -0.343 OA
ATOM     14  O   UNL     1      34.489 -23.513 -13.317  0.00  0.00    -0.272 OA
ATOM     15  N   UNL     1      36.484 -24.015 -14.462  0.00  0.00    -0.254 N 
ATOM     16  C   UNL     1      37.865 -24.478 -14.274  0.00  0.00    +0.130 C 
ATOM     17  C   UNL     1      37.955 -25.640 -13.306  0.00  0.00    +0.165 C 
ATOM     18  C   UNL     1      35.575 -24.092 -13.393  0.00  0.00    +0.260 C 
ATOM     19  C   UNL     1      35.984 -25.018 -12.253  0.00  0.00    +0.228 C 
ENDBRANCH   8  15
ENDBRANCH   3   7
BRANCH   4  20
ATOM     20  C   UNL     1      35.752 -18.555 -20.855  0.00  0.00    +0.135 C 
BRANCH  20  22
ATOM     21  O   UNL     1      34.946 -15.888 -20.426  0.00  0.00    -0.270 OA
ATOM     22  N   UNL     1      35.152 -17.694 -21.832  0.00  0.00    -0.297 N 
ATOM     23  C   UNL     1      34.777 -16.377 -21.545  0.00  0.00    +0.252 C 
ATOM     24  H   UNL     1      34.998 -18.043 -22.739  0.00  0.00    +0.150 HD
BRANCH  23  27
ATOM     25 CL   UNL     1      33.133 -14.842 -26.538  0.00  0.00    -0.075 Cl
ATOM     26  S   UNL     1      34.258 -16.295 -24.205  0.00  0.00    -0.071 S 
ATOM     27  C   UNL     1      34.204 -15.609 -22.659  0.00  0.00    +0.084 C 
ATOM     28  C   UNL     1      33.624 -14.390 -22.602  0.00  0.00    +0.012 C 
ATOM     29  C   UNL     1      33.193 -13.977 -23.896  0.00  0.00    +0.019 C 
ATOM     30  C   UNL     1      33.476 -14.920 -24.860  0.00  0.00    +0.087 C 
ENDBRANCH  23  27
ENDBRANCH  20  22
ENDBRANCH   4  20
TORSDOF 5
ENDMDL
MODEL 5
REMARK VINA RESULT:     -10.7      4.853      9.660
REMARK  Name = 9875401
REMARK  5 active torsions:
REMARK  status: ('A' for Active; 'I' for Inactive)
REMARK    1  A    between atoms: N_3  and  C_7
REMARK    2  A    between atoms: C_4  and  C_20
REMARK    3  A    between atoms: C_8  and  N_15
REMARK    4  A    between atoms: C_20  and  N_22
REMARK    5  A    between atoms: C_23  and  C_27
REMARK                            x       y       z     vdW  Elec       q    Type
REMARK                         _______ _______ _______ _____ _____    ______ ____
ROOT
ATOM      1  O   UNL     1      35.606 -23.347 -16.586  0.00  0.00    -0.434 OA
ATOM      2  O   UNL     1      37.023 -21.732 -17.315  0.00  0.00    -0.226 OA
ATOM      3  N   UNL     1      34.938 -22.126 -18.363  0.00  0.00    -0.221 N 
ATOM      4  C   UNL     1      34.235 -23.700 -16.818  0.00  0.00    +0.210 C 
ATOM      5  C   UNL     1      33.931 -23.139 -18.191  0.00  0.00    +0.147 C 
ATOM      6  C   UNL     1      35.953 -22.315 -17.429  0.00  0.00    +0.409 C 
ENDROOT
BRANCH   3   7
ATOM      7  C   UNL     1      34.897 -21.169 -19.416  0.00  0.00    +0.057 C 
ATOM      8  C   UNL     1      34.818 -19.297 -21.476  0.00  0.00    +0.054 C 
ATOM      9  C   UNL     1      33.671 -20.755 -19.936  0.00  0.00    +0.016 C 
ATOM     10  C   UNL     1      36.084 -20.644 -19.929  0.00  0.00    +0.016 C 
ATOM     11  C   UNL     1      33.631 -19.818 -20.968  0.00  0.00    +0.016 C 
ATOM     12  C   UNL     1      36.044 -19.707 -20.960  0.00  0.00    +0.016 C 
BRANCH   8  15
ATOM     13  O   UNL     1      34.899 -16.290 -24.483  0.00  0.00    -0.343 OA
ATOM     14  O   UNL     1      34.942 -19.857 -24.323  0.00  0.00    -0.272 OA
ATOM     15  N   UNL     1      34.776 -18.326 -22.543  0.00  0.00    -0.254 N 
ATOM     16  C   UNL     1      34.921 -16.907 -22.192  0.00  0.00    +0.130 C 
ATOM     17  C   UNL     1      34.301 -15.993 -23.230  0.00  0.00    +0.165 C 
ATOM     18  C   UNL     1      34.788 -18.711 -23.894  0.00  0.00    +0.260 C 
ATOM     19  C   UNL     1      34.545 -17.588 -24.896  0.00  0.00    +0.228 C 
ENDBRANCH   8  15
ENDBRANCH   3   7
BRANCH   4  20
ATOM     20  C   UNL     1      33.377 -23.089 -15.718  0.00  0.00    +0.135 C 
BRANCH  20  22
ATOM     21  O   UNL     1      31.145 -23.487 -14.043  0.00  0.00    -0.270 OA
ATOM     22  N   UNL     1      32.004 -23.006 -16.119  0.00  0.00    -0.297 N 
ATOM     23  C   UNL     1      30.945 -23.217 -15.229  0.00  0.00    +0.252 C 
ATOM     24  H   UNL     1      31.797 -22.792 -17.058  0.00  0.00    +0.150 HD
BRANCH  23  27
ATOM     25 CL   UNL     1      25.714 -21.754 -15.923  0.00  0.00    -0.075 Cl
ATOM     26  S   UNL     1      28.478 -22.138 -14.910  0.00  0.00    -0.071 S 
ATOM     27  C   UNL     1      29.593 -23.065 -15.782  0.00  0.00    +0.084 C 
ATOM     28  C   UNL     1      29.114 -23.586 -16.933  0.00  0.00    +0.012 C 
ATOM     29  C   UNL     1      27.752 -23.214 -17.126  0.00  0.00    +0.019 C 
ATOM     30  C   UNL     1      27.282 -22.426 -16.099  0.00  0.00    +0.087 C 
ENDBRANCH  23  27
ENDBRANCH  20  22
ENDBRANCH   4  20
TORSDOF 5
ENDMDL
MODEL 6
REMARK VINA RESULT:     -10.5      4.712      7.770
REMARK  Name = 9875401
REMARK  5 active torsions:
REMARK  status: ('A' for Active; 'I' for Inactive)
REMARK    1  A    between atoms: N_3  and  C_7
REMARK    2  A    between atoms: C_4  and  C_20
REMARK    3  A    between atoms: C_8  and  N_15
REMARK    4  A    between atoms: C_20  and  N_22
REMARK    5  A    between atoms: C_23  and  C_27
REMARK                            x       y       z     vdW  Elec       q    Type
REMARK                         _______ _______ _______ _____ _____    ______ ____
ROOT
ATOM      1  O   UNL     1      33.521 -13.612 -24.994  0.00  0.00    -0.434 OA
ATOM      2  O   UNL     1      33.319 -15.804 -25.541  0.00  0.00    -0.226 OA
ATOM      3  N   UNL     1      34.007 -15.117 -23.383  0.00  0.00    -0.221 N 
ATOM      4  C   UNL     1      33.682 -12.860 -23.783  0.00  0.00    +0.210 C 
ATOM      5  C   UNL     1      34.331 -13.833 -22.821  0.00  0.00    +0.147 C 
ATOM      6  C   UNL     1      33.585 -14.956 -24.700  0.00  0.00    +0.409 C 
ENDROOT
BRANCH   3   7
ATOM      7  C   UNL     1      34.210 -16.340 -22.682  0.00  0.00    +0.057 C 
ATOM      8  C   UNL     1      34.607 -18.731 -21.313  0.00  0.00    +0.054 C 
ATOM      9  C   UNL     1      34.850 -17.407 -23.313  0.00  0.00    +0.016 C 
ATOM     10  C   UNL     1      33.769 -16.472 -21.366  0.00  0.00    +0.016 C 
ATOM     11  C   UNL     1      35.049 -18.605 -22.628  0.00  0.00    +0.016 C 
ATOM     12  C   UNL     1      33.968 -17.669 -20.680  0.00  0.00    +0.016 C 
BRANCH   8  15
ATOM     13  O   UNL     1      35.052 -22.512 -19.416  0.00  0.00    -0.343 OA
ATOM     14  O   UNL     1      37.159 -19.826 -20.462  0.00  0.00    -0.272 OA
ATOM     15  N   UNL     1      34.814 -19.970 -20.603  0.00  0.00    -0.254 N 
ATOM     16  C   UNL     1      33.683 -20.900 -20.490  0.00  0.00    +0.130 C 
ATOM     17  C   UNL     1      33.815 -21.825 -19.297  0.00  0.00    +0.165 C 
ATOM     18  C   UNL     1      36.093 -20.381 -20.190  0.00  0.00    +0.260 C 
ATOM     19  C   UNL     1      36.125 -21.610 -19.288  0.00  0.00    +0.228 C 
ENDBRANCH   8  15
ENDBRANCH   3   7
BRANCH   4  20
ATOM     20  C   UNL     1      32.314 -12.380 -23.317  0.00  0.00    +0.135 C 
BRANCH  20  22
ATOM     21  O   UNL     1      31.122 -11.262 -21.020  0.00  0.00    -0.270 OA
ATOM     22  N   UNL     1      32.351 -10.997 -22.943  0.00  0.00    -0.297 N 
ATOM     23  C   UNL     1      31.734 -10.513 -21.784  0.00  0.00    +0.252 C 
ATOM     24  H   UNL     1      32.829 -10.362 -23.525  0.00  0.00    +0.150 HD
BRANCH  23  27
ATOM     25 CL   UNL     1      31.774  -5.066 -22.354  0.00  0.00    -0.075 Cl
ATOM     26  S   UNL     1      31.506  -7.995 -22.765  0.00  0.00    -0.071 S 
ATOM     27  C   UNL     1      31.887  -9.076 -21.520  0.00  0.00    +0.084 C 
ATOM     28  C   UNL     1      32.306  -8.493 -20.375  0.00  0.00    +0.012 C 
ATOM     29  C   UNL     1      32.323  -7.074 -20.510  0.00  0.00    +0.019 C 
ATOM     30  C   UNL     1      31.911  -6.670 -21.760  0.00  0.00    +0.087 C 
ENDBRANCH  23  27
ENDBRANCH  20  22
ENDBRANCH   4  20
TORSDOF 5
ENDMDL
MODEL 7
REMARK VINA RESULT:     -10.3      4.310      7.197
REMARK  Name = 9875401
REMARK  5 active torsions:
REMARK  status: ('A' for Active; 'I' for Inactive)
REMARK    1  A    between atoms: N_3  and  C_7
REMARK    2  A    between atoms: C_4  and  C_20
REMARK    3  A    between atoms: C_8  and  N_15
REMARK    4  A    between atoms: C_20  and  N_22
REMARK    5  A    between atoms: C_23  and  C_27
REMARK                            x       y       z     vdW  Elec       q    Type
REMARK                         _______ _______ _______ _____ _____    ______ ____
ROOT
ATOM      1  O   UNL     1      33.878 -14.755 -25.588  0.00  0.00    -0.434 OA
ATOM      2  O   UNL     1      33.527 -16.984 -25.827  0.00  0.00    -0.226 OA
ATOM      3  N   UNL     1      34.223 -16.046 -23.769  0.00  0.00    -0.221 N 
ATOM      4  C   UNL     1      34.072 -13.852 -24.491  0.00  0.00    +0.210 C 
ATOM      5  C   UNL     1      34.631 -14.721 -23.384  0.00  0.00    +0.147 C 
ATOM      6  C   UNL     1      33.838 -16.044 -25.107  0.00  0.00    +0.409 C 
ENDROOT
BRANCH   3   7
ATOM      7  C   UNL     1      34.324 -17.167 -22.898  0.00  0.00    +0.057 C 
ATOM      8  C   UNL     1      34.522 -19.360 -21.194  0.00  0.00    +0.054 C 
ATOM      9  C   UNL     1      33.960 -17.044 -21.557  0.00  0.00    +0.016 C 
ATOM     10  C   UNL     1      34.788 -18.389 -23.384  0.00  0.00    +0.016 C 
ATOM     11  C   UNL     1      34.059 -18.143 -20.703  0.00  0.00    +0.016 C 
ATOM     12  C   UNL     1      34.887 -19.488 -22.531  0.00  0.00    +0.016 C 
BRANCH   8  15
ATOM     13  O   UNL     1      34.663 -22.858 -18.778  0.00  0.00    -0.343 OA
ATOM     14  O   UNL     1      36.959 -20.423 -20.023  0.00  0.00    -0.272 OA
ATOM     15  N   UNL     1      34.624 -20.497 -20.311  0.00  0.00    -0.254 N 
ATOM     16  C   UNL     1      33.445 -21.359 -20.155  0.00  0.00    +0.130 C 
ATOM     17  C   UNL     1      33.455 -22.115 -18.842  0.00  0.00    +0.165 C 
ATOM     18  C   UNL     1      35.851 -20.895 -19.755  0.00  0.00    +0.260 C 
ATOM     19  C   UNL     1      35.766 -21.988 -18.696  0.00  0.00    +0.228 C 
ENDBRANCH   8  15
ENDBRANCH   3   7
BRANCH   4  20
ATOM     20  C   UNL     1      32.735 -13.216 -24.136  0.00  0.00    +0.135 C 
BRANCH  20  22
ATOM     21  O   UNL     1      34.200 -11.186 -25.433  0.00  0.00    -0.270 OA
ATOM     22  N   UNL     1      32.909 -11.875 -23.661  0.00  0.00    -0.297 N 
ATOM     23  C   UNL     1      33.653 -10.918 -24.361  0.00  0.00    +0.252 C 
ATOM     24  H   UNL     1      32.490 -11.617 -22.808  0.00  0.00    +0.150 HD
BRANCH  23  27
ATOM     25 CL   UNL     1      32.467  -6.434 -21.451  0.00  0.00    -0.075 Cl
ATOM     26  S   UNL     1      32.459  -9.116 -22.725  0.00  0.00    -0.071 S 
ATOM     27  C   UNL     1      33.714  -9.579 -23.761  0.00  0.00    +0.084 C 
ATOM     28  C   UNL     1      34.673  -8.643 -23.939  0.00  0.00    +0.012 C 
ATOM     29  C   UNL     1      34.376  -7.469 -23.188  0.00  0.00    +0.019 C 
ATOM     30  C   UNL     1      33.199  -7.592 -22.482  0.00  0.00    +0.087 C 
ENDBRANCH  23  27
ENDBRANCH  20  22
ENDBRANCH   4  20
TORSDOF 5
ENDMDL
MODEL 8
REMARK VINA RESULT:     -10.2      4.643     10.525
REMARK  Name = 9875401
REMARK  5 active torsions:
REMARK  status: ('A' for Active; 'I' for Inactive)
REMARK    1  A    between atoms: N_3  and  C_7
REMARK    2  A    between atoms: C_4  and  C_20
REMARK    3  A    between atoms: C_8  and  N_15
REMARK    4  A    between atoms: C_20  and  N_22
REMARK    5  A    between atoms: C_23  and  C_27
REMARK                            x       y       z     vdW  Elec       q    Type
REMARK                         _______ _______ _______ _____ _____    ______ ____
ROOT
ATOM      1  O   UNL     1      34.711 -23.612 -17.175  0.00  0.00    -0.434 OA
ATOM      2  O   UNL     1      36.436 -22.419 -18.040  0.00  0.00    -0.226 OA
ATOM      3  N   UNL     1      34.196 -22.026 -18.696  0.00  0.00    -0.221 N 
ATOM      4  C   UNL     1      33.281 -23.502 -17.166  0.00  0.00    +0.210 C 
ATOM      5  C   UNL     1      32.959 -22.701 -18.410  0.00  0.00    +0.147 C 
ATOM      6  C   UNL     1      35.232 -22.632 -17.990  0.00  0.00    +0.409 C 
ENDROOT
BRANCH   3   7
ATOM      7  C   UNL     1      34.298 -20.972 -19.648  0.00  0.00    +0.057 C 
ATOM      8  C   UNL     1      34.498 -18.911 -21.509  0.00  0.00    +0.054 C 
ATOM      9  C   UNL     1      35.553 -20.545 -20.084  0.00  0.00    +0.016 C 
ATOM     10  C   UNL     1      33.145 -20.366 -20.145  0.00  0.00    +0.016 C 
ATOM     11  C   UNL     1      35.653 -19.512 -21.016  0.00  0.00    +0.016 C 
ATOM     12  C   UNL     1      33.244 -19.334 -21.078  0.00  0.00    +0.016 C 
BRANCH   8  15
ATOM     13  O   UNL     1      35.006 -15.648 -24.190  0.00  0.00    -0.343 OA
ATOM     14  O   UNL     1      34.798 -19.207 -24.383  0.00  0.00    -0.272 OA
ATOM     15  N   UNL     1      34.602 -17.844 -22.475  0.00  0.00    -0.254 N 
ATOM     16  C   UNL     1      34.815 -16.478 -21.976  0.00  0.00    +0.130 C 
ATOM     17  C   UNL     1      34.337 -15.427 -22.958  0.00  0.00    +0.165 C 
ATOM     18  C   UNL     1      34.690 -18.099 -23.854  0.00  0.00    +0.260 C 
ATOM     19  C   UNL     1      34.599 -16.872 -24.753  0.00  0.00    +0.228 C 
ENDBRANCH   8  15
ENDBRANCH   3   7
BRANCH   4  20
ATOM     20  C   UNL     1      32.849 -22.810 -15.880  0.00  0.00    +0.135 C 
BRANCH  20  22
ATOM     21  O   UNL     1      32.968 -24.795 -13.881  0.00  0.00    -0.270 OA
ATOM     22  N   UNL     1      33.859 -22.921 -14.869  0.00  0.00    -0.297 N 
ATOM     23  C   UNL     1      33.852 -23.936 -13.905  0.00  0.00    +0.252 C 
ATOM     24  H   UNL     1      34.585 -22.256 -14.850  0.00  0.00    +0.150 HD
BRANCH  23  27
ATOM     25 CL   UNL     1      38.867 -23.579 -11.734  0.00  0.00    -0.075 Cl
ATOM     26  S   UNL     1      36.521 -23.610 -13.555  0.00  0.00    -0.071 S 
ATOM     27  C   UNL     1      34.972 -23.935 -12.955  0.00  0.00    +0.084 C 
ATOM     28  C   UNL     1      34.920 -24.167 -11.625  0.00  0.00    +0.012 C 
ATOM     29  C   UNL     1      36.219 -24.079 -11.047  0.00  0.00    +0.019 C 
ATOM     30  C   UNL     1      37.183 -23.782 -11.986  0.00  0.00    +0.087 C 
ENDBRANCH  23  27
ENDBRANCH  20  22
ENDBRANCH   4  20
TORSDOF 5
ENDMDL
MODEL 9
REMARK VINA RESULT:     -10.1      3.017      5.214
REMARK  Name = 9875401
REMARK  5 active torsions:
REMARK  status: ('A' for Active; 'I' for Inactive)
REMARK    1  A    between atoms: N_3  and  C_7
REMARK    2  A    between atoms: C_4  and  C_20
REMARK    3  A    between atoms: C_8  and  N_15
REMARK    4  A    between atoms: C_20  and  N_22
REMARK    5  A    between atoms: C_23  and  C_27
REMARK                            x       y       z     vdW  Elec       q    Type
REMARK                         _______ _______ _______ _____ _____    ______ ____
ROOT
ATOM      1  O   UNL     1      34.979 -17.116 -25.052  0.00  0.00    -0.434 OA
ATOM      2  O   UNL     1      34.858 -19.376 -24.901  0.00  0.00    -0.226 OA
ATOM      3  N   UNL     1      34.982 -18.003 -22.977  0.00  0.00    -0.221 N 
ATOM      4  C   UNL     1      34.844 -16.012 -24.147  0.00  0.00    +0.210 C 
ATOM      5  C   UNL     1      35.189 -16.592 -22.792  0.00  0.00    +0.147 C 
ATOM      6  C   UNL     1      34.922 -18.291 -24.338  0.00  0.00    +0.409 C 
ENDROOT
BRANCH   3   7
ATOM      7  C   UNL     1      34.957 -18.928 -21.894  0.00  0.00    +0.057 C 
ATOM      8  C   UNL     1      34.909 -20.735 -19.777  0.00  0.00    +0.054 C 
ATOM      9  C   UNL     1      33.738 -19.393 -21.402  0.00  0.00    +0.016 C 
ATOM     10  C   UNL     1      36.152 -19.368 -21.325  0.00  0.00    +0.016 C 
ATOM     11  C   UNL     1      33.713 -20.298 -20.341  0.00  0.00    +0.016 C 
ATOM     12  C   UNL     1      36.128 -20.273 -20.265  0.00  0.00    +0.016 C 
BRANCH   8  15
ATOM     13  O   UNL     1      34.933 -23.289 -16.376  0.00  0.00    -0.343 OA
ATOM     14  O   UNL     1      32.683 -22.438 -19.014  0.00  0.00    -0.272 OA
ATOM     15  N   UNL     1      34.883 -21.672 -18.680  0.00  0.00    -0.254 N 
ATOM     16  C   UNL     1      35.976 -21.619 -17.699  0.00  0.00    +0.130 C 
ATOM     17  C   UNL     1      36.169 -22.940 -16.981  0.00  0.00    +0.165 C 
ATOM     18  C   UNL     1      33.768 -22.490 -18.431  0.00  0.00    +0.260 C 
ATOM     19  C   UNL     1      33.966 -23.559 -17.362  0.00  0.00    +0.228 C 
ENDBRANCH   8  15
ENDBRANCH   3   7
BRANCH   4  20
ATOM     20  C   UNL     1      33.418 -15.483 -24.227  0.00  0.00    +0.135 C 
BRANCH  20  22
ATOM     21  O   UNL     1      32.073 -14.026 -22.223  0.00  0.00    -0.270 OA
ATOM     22  N   UNL     1      33.387 -14.055 -24.107  0.00  0.00    -0.297 N 
ATOM     23  C   UNL     1      32.696 -13.400 -23.083  0.00  0.00    +0.252 C 
ATOM     24  H   UNL     1      33.871 -13.514 -24.773  0.00  0.00    +0.150 HD
BRANCH  23  27
ATOM     25 CL   UNL     1      34.232  -8.250 -24.133  0.00  0.00    -0.075 Cl
ATOM     26  S   UNL     1      33.953 -11.205 -24.060  0.00  0.00    -0.071 S 
ATOM     27  C   UNL     1      32.785 -11.934 -23.075  0.00  0.00    +0.084 C 
ATOM     28  C   UNL     1      32.030 -11.070 -22.361  0.00  0.00    +0.012 C 
ATOM     29  C   UNL     1      32.421  -9.724 -22.624  0.00  0.00    +0.019 C 
ATOM     30  C   UNL     1      33.456  -9.655 -23.530  0.00  0.00    +0.087 C 
ENDBRANCH  23  27
ENDBRANCH  20  22
ENDBRANCH   4  20
TORSDOF 5
ENDMDL
