MODEL 1
REMARK VINA RESULT:      -9.3      0.000      0.000
REMARK  Name = 115163
REMARK  9 active torsions:
REMARK  status: ('A' for Active; 'I' for Inactive)
REMARK    1  A    between atoms: C_6  and  C_21
REMARK    2  A    between atoms: C_7  and  N_11
REMARK    3  A    between atoms: N_11  and  C_13
REMARK    4  A    between atoms: N_12  and  C_13
REMARK    5  A    between atoms: C_21  and  O_22
REMARK    6  A    between atoms: O_22  and  C_23
REMARK    7  A    between atoms: C_23  and  O_24
REMARK    8  A    between atoms: O_24  and  C_26
REMARK    9  A    between atoms: C_26  and  C_27
REMARK                            x       y       z     vdW  Elec       q    Type
REMARK                         _______ _______ _______ _____ _____    ______ ____
ROOT
ATOM      1  S   UNL     1      34.457 -14.635 -23.318  0.00  0.00    -0.119 S 
ATOM      2  O   UNL     1      31.946 -15.484 -19.798  0.00  0.00    -0.273 OA
ATOM      3  N   UNL     1      33.155 -13.990 -21.169  0.00  0.00    -0.260 N 
ATOM      4  C   UNL     1      34.533 -14.353 -21.512  0.00  0.00    +0.149 C 
ATOM      5  C   UNL     1      33.111 -13.360 -23.499  0.00  0.00    +0.068 C 
ATOM      6  C   UNL     1      32.265 -13.539 -22.220  0.00  0.00    +0.185 C 
ATOM      7  C   UNL     1      34.364 -15.585 -20.612  0.00  0.00    +0.179 C 
ATOM      8  C   UNL     1      32.934 -15.066 -20.359  0.00  0.00    +0.245 C 
ATOM      9  C   UNL     1      32.296 -13.672 -24.756  0.00  0.00    +0.013 C 
ATOM     10  C   UNL     1      33.778 -11.985 -23.633  0.00  0.00    +0.013 C 
ENDROOT
BRANCH   6  12
ATOM     11  O   UNL     1      30.801 -11.640 -22.388  0.00  0.00    -0.248 OA
ATOM     12  C   UNL     1      31.586 -12.302 -21.724  0.00  0.00    +0.339 C 
BRANCH  12  13
ATOM     13  O   UNL     1      31.978 -12.051 -20.444  0.00  0.00    -0.407 OA
BRANCH  13  14
ATOM     14  C   UNL     1      31.904 -10.681 -20.014  0.00  0.00    +0.433 C 
BRANCH  14  15
ATOM     15  O   UNL     1      32.338  -9.744 -21.014  0.00  0.00    -0.408 OA
BRANCH  15  17
ATOM     16  O   UNL     1      32.212  -7.994 -19.525  0.00  0.00    -0.250 OA
ATOM     17  C   UNL     1      32.291  -8.422 -20.671  0.00  0.00    +0.319 C 
BRANCH  17  18
ATOM     18  C   UNL     1      32.338  -7.543 -21.923  0.00  0.00    +0.090 C 
ATOM     19  C   UNL     1      31.348  -8.084 -22.968  0.00  0.00    +0.011 C 
ATOM     20  C   UNL     1      33.754  -7.574 -22.513  0.00  0.00    +0.011 C 
ATOM     21  C   UNL     1      31.940  -6.106 -21.559  0.00  0.00    +0.011 C 
ENDBRANCH  17  18
ENDBRANCH  15  17
ENDBRANCH  14  15
ENDBRANCH  13  14
ENDBRANCH  12  13
ENDBRANCH   6  12
BRANCH   7  22
ATOM     22  N   UNL     1      34.367 -16.863 -21.291  0.00  0.00    -0.190 NA
BRANCH  22  23
ATOM     23  C   UNL     1      35.264 -17.694 -20.857  0.00  0.00    +0.164 C 
BRANCH  23  24
ATOM     24  N   UNL     1      35.279 -19.043 -20.998  0.00  0.00    -0.258 NA
ATOM     25  C   UNL     1      36.460 -19.813 -20.609  0.00  0.00    +0.073 C 
ATOM     26  C   UNL     1      34.139 -19.743 -21.583  0.00  0.00    +0.073 C 
ATOM     27  C   UNL     1      36.168 -21.229 -20.121  0.00  0.00    +0.017 C 
ATOM     28  C   UNL     1      33.182 -20.198 -20.485  0.00  0.00    +0.017 C 
ATOM     29  C   UNL     1      35.043 -21.320 -19.090  0.00  0.00    +0.001 C 
ATOM     30  C   UNL     1      33.656 -21.436 -19.725  0.00  0.00    +0.001 C 
ENDBRANCH  23  24
ENDBRANCH  22  23
ENDBRANCH   7  22
TORSDOF 9
ENDMDL
MODEL 2
REMARK VINA RESULT:      -8.8      4.624     10.746
REMARK  Name = 115163
REMARK  9 active torsions:
REMARK  status: ('A' for Active; 'I' for Inactive)
REMARK    1  A    between atoms: C_6  and  C_21
REMARK    2  A    between atoms: C_7  and  N_11
REMARK    3  A    between atoms: N_11  and  C_13
REMARK    4  A    between atoms: N_12  and  C_13
REMARK    5  A    between atoms: C_21  and  O_22
REMARK    6  A    between atoms: O_22  and  C_23
REMARK    7  A    between atoms: C_23  and  O_24
REMARK    8  A    between atoms: O_24  and  C_26
REMARK    9  A    between atoms: C_26  and  C_27
REMARK                            x       y       z     vdW  Elec       q    Type
REMARK                         _______ _______ _______ _____ _____    ______ ____
ROOT
ATOM      1  S   UNL     1      36.506 -19.546 -20.599  0.00  0.00    -0.119 S 
ATOM      2  O   UNL     1      32.146 -19.799 -20.010  0.00  0.00    -0.273 OA
ATOM      3  N   UNL     1      34.224 -20.781 -20.549  0.00  0.00    -0.260 N 
ATOM      4  C   UNL     1      35.049 -20.105 -21.555  0.00  0.00    +0.149 C 
ATOM      5  C   UNL     1      36.364 -21.009 -19.456  0.00  0.00    +0.068 C 
ATOM      6  C   UNL     1      34.841 -21.213 -19.311  0.00  0.00    +0.185 C 
ATOM      7  C   UNL     1      33.904 -19.097 -21.724  0.00  0.00    +0.179 C 
ATOM      8  C   UNL     1      33.171 -19.918 -20.643  0.00  0.00    +0.245 C 
ATOM      9  C   UNL     1      37.010 -20.656 -18.114  0.00  0.00    +0.013 C 
ATOM     10  C   UNL     1      37.106 -22.187 -20.101  0.00  0.00    +0.013 C 
ENDROOT
BRANCH   6  12
ATOM     11  O   UNL     1      34.111 -23.410 -19.959  0.00  0.00    -0.248 OA
ATOM     12  C   UNL     1      34.405 -22.623 -19.070  0.00  0.00    +0.339 C 
BRANCH  12  13
ATOM     13  O   UNL     1      34.396 -22.874 -17.731  0.00  0.00    -0.407 OA
BRANCH  13  14
ATOM     14  C   UNL     1      33.411 -23.812 -17.266  0.00  0.00    +0.433 C 
BRANCH  14  15
ATOM     15  O   UNL     1      32.679 -23.352 -16.118  0.00  0.00    -0.408 OA
BRANCH  15  17
ATOM     16  O   UNL     1      30.972 -22.367 -17.305  0.00  0.00    -0.250 OA
ATOM     17  C   UNL     1      31.380 -22.987 -16.330  0.00  0.00    +0.319 C 
BRANCH  17  18
ATOM     18  C   UNL     1      30.499 -23.450 -15.167  0.00  0.00    +0.090 C 
ATOM     19  C   UNL     1      29.202 -22.625 -15.145  0.00  0.00    +0.011 C 
ATOM     20  C   UNL     1      31.249 -23.236 -13.845  0.00  0.00    +0.011 C 
ATOM     21  C   UNL     1      30.143 -24.932 -15.347  0.00  0.00    +0.011 C 
ENDBRANCH  17  18
ENDBRANCH  15  17
ENDBRANCH  14  15
ENDBRANCH  13  14
ENDBRANCH  12  13
ENDBRANCH   6  12
BRANCH   7  22
ATOM     22  N   UNL     1      34.186 -17.747 -21.283  0.00  0.00    -0.190 NA
BRANCH  22  23
ATOM     23  C   UNL     1      34.316 -16.890 -22.248  0.00  0.00    +0.164 C 
BRANCH  23  24
ATOM     24  N   UNL     1      34.335 -15.537 -22.154  0.00  0.00    -0.258 NA
ATOM     25  C   UNL     1      34.461 -14.715 -23.358  0.00  0.00    +0.073 C 
ATOM     26  C   UNL     1      34.280 -14.880 -20.851  0.00  0.00    +0.073 C 
ATOM     27  C   UNL     1      33.777 -13.353 -23.276  0.00  0.00    +0.017 C 
ATOM     28  C   UNL     1      32.833 -14.555 -20.489  0.00  0.00    +0.017 C 
ATOM     29  C   UNL     1      32.345 -13.399 -22.745  0.00  0.00    +0.001 C 
ATOM     30  C   UNL     1      32.270 -13.337 -21.218  0.00  0.00    +0.001 C 
ENDBRANCH  23  24
ENDBRANCH  22  23
ENDBRANCH   7  22
TORSDOF 9
ENDMDL
MODEL 3
REMARK VINA RESULT:      -8.6      8.936     13.248
REMARK  Name = 115163
REMARK  9 active torsions:
REMARK  status: ('A' for Active; 'I' for Inactive)
REMARK    1  A    between atoms: C_6  and  C_21
REMARK    2  A    between atoms: C_7  and  N_11
REMARK    3  A    between atoms: N_11  and  C_13
REMARK    4  A    between atoms: N_12  and  C_13
REMARK    5  A    between atoms: C_21  and  O_22
REMARK    6  A    between atoms: O_22  and  C_23
REMARK    7  A    between atoms: C_23  and  O_24
REMARK    8  A    between atoms: O_24  and  C_26
REMARK    9  A    between atoms: C_26  and  C_27
REMARK                            x       y       z     vdW  Elec       q    Type
REMARK                         _______ _______ _______ _____ _____    ______ ____
ROOT
ATOM      1  S   UNL     1      31.163 -23.037 -16.996  0.00  0.00    -0.119 S 
ATOM      2  O   UNL     1      34.992 -25.039 -16.132  0.00  0.00    -0.273 OA
ATOM      3  N   UNL     1      33.189 -23.654 -15.497  0.00  0.00    -0.260 N 
ATOM      4  C   UNL     1      32.827 -22.559 -16.403  0.00  0.00    +0.149 C 
ATOM      5  C   UNL     1      30.790 -23.884 -15.380  0.00  0.00    +0.068 C 
ATOM      6  C   UNL     1      32.142 -24.507 -14.973  0.00  0.00    +0.185 C 
ATOM      7  C   UNL     1      34.018 -22.975 -17.277  0.00  0.00    +0.179 C 
ATOM      8  C   UNL     1      34.259 -24.081 -16.230  0.00  0.00    +0.245 C 
ATOM      9  C   UNL     1      29.728 -24.961 -15.616  0.00  0.00    +0.013 C 
ATOM     10  C   UNL     1      30.256 -22.827 -14.404  0.00  0.00    +0.013 C 
ENDROOT
BRANCH   6  12
ATOM     11  O   UNL     1      31.709 -25.351 -12.764  0.00  0.00    -0.248 OA
ATOM     12  C   UNL     1      32.371 -24.633 -13.500  0.00  0.00    +0.339 C 
BRANCH  12  13
ATOM     13  O   UNL     1      33.414 -23.837 -13.132  0.00  0.00    -0.407 OA
BRANCH  13  14
ATOM     14  C   UNL     1      34.486 -24.481 -12.425  0.00  0.00    +0.433 C 
BRANCH  14  15
ATOM     15  O   UNL     1      35.756 -24.373 -13.089  0.00  0.00    -0.408 OA
BRANCH  15  17
ATOM     16  O   UNL     1      36.699 -25.969 -11.726  0.00  0.00    -0.250 OA
ATOM     17  C   UNL     1      36.699 -25.303 -12.755  0.00  0.00    +0.319 C 
BRANCH  17  18
ATOM     18  C   UNL     1      37.773 -25.391 -13.844  0.00  0.00    +0.090 C 
ATOM     19  C   UNL     1      39.159 -25.511 -13.190  0.00  0.00    +0.011 C 
ATOM     20  C   UNL     1      37.732 -24.118 -14.700  0.00  0.00    +0.011 C 
ATOM     21  C   UNL     1      37.524 -26.631 -14.714  0.00  0.00    +0.011 C 
ENDBRANCH  17  18
ENDBRANCH  15  17
ENDBRANCH  14  15
ENDBRANCH  13  14
ENDBRANCH  12  13
ENDBRANCH   6  12
BRANCH   7  22
ATOM     22  N   UNL     1      33.683 -23.521 -18.576  0.00  0.00    -0.190 NA
BRANCH  22  23
ATOM     23  C   UNL     1      34.197 -22.871 -19.574  0.00  0.00    +0.164 C 
BRANCH  23  24
ATOM     24  N   UNL     1      34.460 -21.542 -19.648  0.00  0.00    -0.258 NA
ATOM     25  C   UNL     1      35.840 -21.068 -19.752  0.00  0.00    +0.073 C 
ATOM     26  C   UNL     1      33.378 -20.564 -19.575  0.00  0.00    +0.073 C 
ATOM     27  C   UNL     1      36.010 -19.760 -20.522  0.00  0.00    +0.017 C 
ATOM     28  C   UNL     1      32.896 -20.210 -20.979  0.00  0.00    +0.017 C 
ATOM     29  C   UNL     1      35.272 -19.718 -21.860  0.00  0.00    +0.001 C 
ATOM     30  C   UNL     1      33.821 -19.253 -21.730  0.00  0.00    +0.001 C 
ENDBRANCH  23  24
ENDBRANCH  22  23
ENDBRANCH   7  22
TORSDOF 9
ENDMDL
MODEL 4
REMARK VINA RESULT:      -8.4      2.544      4.129
REMARK  Name = 115163
REMARK  9 active torsions:
REMARK  status: ('A' for Active; 'I' for Inactive)
REMARK    1  A    between atoms: C_6  and  C_21
REMARK    2  A    between atoms: C_7  and  N_11
REMARK    3  A    between atoms: N_11  and  C_13
REMARK    4  A    between atoms: N_12  and  C_13
REMARK    5  A    between atoms: C_21  and  O_22
REMARK    6  A    between atoms: O_22  and  C_23
REMARK    7  A    between atoms: C_23  and  O_24
REMARK    8  A    between atoms: O_24  and  C_26
REMARK    9  A    between atoms: C_26  and  C_27
REMARK                            x       y       z     vdW  Elec       q    Type
REMARK                         _______ _______ _______ _____ _____    ______ ____
ROOT
ATOM      1  S   UNL     1      32.109 -13.040 -20.991  0.00  0.00    -0.119 S 
ATOM      2  O   UNL     1      34.398 -10.949 -24.122  0.00  0.00    -0.273 OA
ATOM      3  N   UNL     1      32.386 -11.380 -22.966  0.00  0.00    -0.260 N 
ATOM      4  C   UNL     1      31.990 -12.782 -22.799  0.00  0.00    +0.149 C 
ATOM      5  C   UNL     1      31.652 -11.263 -20.670  0.00  0.00    +0.068 C 
ATOM      6  C   UNL     1      32.339 -10.496 -21.820  0.00  0.00    +0.185 C 
ATOM      7  C   UNL     1      33.221 -13.162 -23.634  0.00  0.00    +0.179 C 
ATOM      8  C   UNL     1      33.500 -11.647 -23.709  0.00  0.00    +0.245 C 
ATOM      9  C   UNL     1      32.210 -10.845 -19.308  0.00  0.00    +0.013 C 
ATOM     10  C   UNL     1      30.121 -11.163 -20.664  0.00  0.00    +0.013 C 
ENDROOT
BRANCH   6  12
ATOM     11  O   UNL     1      30.994  -9.146 -23.285  0.00  0.00    -0.248 OA
ATOM     12  C   UNL     1      31.647  -9.244 -22.256  0.00  0.00    +0.339 C 
BRANCH  12  13
ATOM     13  O   UNL     1      31.861  -8.262 -21.336  0.00  0.00    -0.407 OA
BRANCH  13  14
ATOM     14  C   UNL     1      32.991  -7.406 -21.571  0.00  0.00    +0.433 C 
BRANCH  14  15
ATOM     15  O   UNL     1      32.673  -6.239 -22.349  0.00  0.00    -0.408 OA
BRANCH  15  17
ATOM     16  O   UNL     1      33.821  -6.995 -24.194  0.00  0.00    -0.250 OA
ATOM     17  C   UNL     1      32.943  -6.307 -23.686  0.00  0.00    +0.319 C 
BRANCH  17  18
ATOM     18  C   UNL     1      32.002  -5.387 -24.468  0.00  0.00    +0.090 C 
ATOM     19  C   UNL     1      31.669  -4.149 -23.619  0.00  0.00    +0.011 C 
ATOM     20  C   UNL     1      30.703  -6.140 -24.785  0.00  0.00    +0.011 C 
ATOM     21  C   UNL     1      32.687  -4.930 -25.764  0.00  0.00    +0.011 C 
ENDBRANCH  17  18
ENDBRANCH  15  17
ENDBRANCH  14  15
ENDBRANCH  13  14
ENDBRANCH  12  13
ENDBRANCH   6  12
BRANCH   7  22
ATOM     22  N   UNL     1      34.265 -13.872 -22.925  0.00  0.00    -0.190 NA
BRANCH  22  23
ATOM     23  C   UNL     1      34.689 -14.938 -23.532  0.00  0.00    +0.164 C 
BRANCH  23  24
ATOM     24  N   UNL     1      34.431 -16.230 -23.210  0.00  0.00    -0.258 NA
ATOM     25  C   UNL     1      34.629 -17.290 -24.197  0.00  0.00    +0.073 C 
ATOM     26  C   UNL     1      33.905 -16.578 -21.893  0.00  0.00    +0.073 C 
ATOM     27  C   UNL     1      35.018 -18.645 -23.611  0.00  0.00    +0.017 C 
ATOM     28  C   UNL     1      35.051 -16.916 -20.943  0.00  0.00    +0.017 C 
ATOM     29  C   UNL     1      36.147 -18.583 -22.581  0.00  0.00    +0.001 C 
ATOM     30  C   UNL     1      35.648 -18.305 -21.162  0.00  0.00    +0.001 C 
ENDBRANCH  23  24
ENDBRANCH  22  23
ENDBRANCH   7  22
TORSDOF 9
ENDMDL
MODEL 5
REMARK VINA RESULT:      -8.3      2.370      3.334
REMARK  Name = 115163
REMARK  9 active torsions:
REMARK  status: ('A' for Active; 'I' for Inactive)
REMARK    1  A    between atoms: C_6  and  C_21
REMARK    2  A    between atoms: C_7  and  N_11
REMARK    3  A    between atoms: N_11  and  C_13
REMARK    4  A    between atoms: N_12  and  C_13
REMARK    5  A    between atoms: C_21  and  O_22
REMARK    6  A    between atoms: O_22  and  C_23
REMARK    7  A    between atoms: C_23  and  O_24
REMARK    8  A    between atoms: O_24  and  C_26
REMARK    9  A    between atoms: C_26  and  C_27
REMARK                            x       y       z     vdW  Elec       q    Type
REMARK                         _______ _______ _______ _____ _____    ______ ____
ROOT
ATOM      1  S   UNL     1      34.215 -16.464 -21.415  0.00  0.00    -0.119 S 
ATOM      2  O   UNL     1      35.330 -16.487 -25.677  0.00  0.00    -0.273 OA
ATOM      3  N   UNL     1      33.855 -15.917 -23.925  0.00  0.00    -0.260 N 
ATOM      4  C   UNL     1      33.462 -16.984 -22.999  0.00  0.00    +0.149 C 
ATOM      5  C   UNL     1      34.016 -14.668 -21.866  0.00  0.00    +0.068 C 
ATOM      6  C   UNL     1      34.283 -14.642 -23.386  0.00  0.00    +0.185 C 
ATOM      7  C   UNL     1      34.278 -17.951 -23.868  0.00  0.00    +0.179 C 
ATOM      8  C   UNL     1      34.602 -16.719 -24.738  0.00  0.00    +0.245 C 
ATOM      9  C   UNL     1      35.056 -13.845 -21.103  0.00  0.00    +0.013 C 
ATOM     10  C   UNL     1      32.602 -14.233 -21.460  0.00  0.00    +0.013 C 
ENDROOT
BRANCH   6  12
ATOM     11  O   UNL     1      32.728 -13.800 -25.015  0.00  0.00    -0.248 OA
ATOM     12  C   UNL     1      33.558 -13.577 -24.145  0.00  0.00    +0.339 C 
BRANCH  12  13
ATOM     13  O   UNL     1      33.965 -12.352 -23.709  0.00  0.00    -0.407 OA
BRANCH  13  14
ATOM     14  C   UNL     1      33.830 -11.268 -24.643  0.00  0.00    +0.433 C 
BRANCH  14  15
ATOM     15  O   UNL     1      34.088  -9.978 -24.065  0.00  0.00    -0.408 OA
BRANCH  15  17
ATOM     16  O   UNL     1      31.992  -9.937 -23.116  0.00  0.00    -0.250 OA
ATOM     17  C   UNL     1      33.047  -9.385 -23.408  0.00  0.00    +0.319 C 
BRANCH  17  18
ATOM     18  C   UNL     1      33.374  -7.922 -23.098  0.00  0.00    +0.090 C 
ATOM     19  C   UNL     1      32.454  -7.004 -23.920  0.00  0.00    +0.011 C 
ATOM     20  C   UNL     1      34.833  -7.637 -23.478  0.00  0.00    +0.011 C 
ATOM     21  C   UNL     1      33.146  -7.648 -21.605  0.00  0.00    +0.011 C 
ENDBRANCH  17  18
ENDBRANCH  15  17
ENDBRANCH  14  15
ENDBRANCH  13  14
ENDBRANCH  12  13
ENDBRANCH   6  12
BRANCH   7  22
ATOM     22  N   UNL     1      35.463 -18.505 -23.248  0.00  0.00    -0.190 NA
BRANCH  22  23
ATOM     23  C   UNL     1      35.263 -19.627 -22.628  0.00  0.00    +0.164 C 
BRANCH  23  24
ATOM     24  N   UNL     1      34.930 -19.804 -21.326  0.00  0.00    -0.258 NA
ATOM     25  C   UNL     1      33.537 -20.038 -20.946  0.00  0.00    +0.073 C 
ATOM     26  C   UNL     1      35.944 -19.716 -20.279  0.00  0.00    +0.073 C 
ATOM     27  C   UNL     1      33.350 -20.900 -19.699  0.00  0.00    +0.017 C 
ATOM     28  C   UNL     1      36.511 -21.101 -19.979  0.00  0.00    +0.017 C 
ATOM     29  C   UNL     1      34.184 -22.181 -19.690  0.00  0.00    +0.001 C 
ATOM     30  C   UNL     1      35.592 -21.976 -19.129  0.00  0.00    +0.001 C 
ENDBRANCH  23  24
ENDBRANCH  22  23
ENDBRANCH   7  22
TORSDOF 9
ENDMDL
MODEL 6
REMARK VINA RESULT:      -8.3      1.103      1.545
REMARK  Name = 115163
REMARK  9 active torsions:
REMARK  status: ('A' for Active; 'I' for Inactive)
REMARK    1  A    between atoms: C_6  and  C_21
REMARK    2  A    between atoms: C_7  and  N_11
REMARK    3  A    between atoms: N_11  and  C_13
REMARK    4  A    between atoms: N_12  and  C_13
REMARK    5  A    between atoms: C_21  and  O_22
REMARK    6  A    between atoms: O_22  and  C_23
REMARK    7  A    between atoms: C_23  and  O_24
REMARK    8  A    between atoms: O_24  and  C_26
REMARK    9  A    between atoms: C_26  and  C_27
REMARK                            x       y       z     vdW  Elec       q    Type
REMARK                         _______ _______ _______ _____ _____    ______ ____
ROOT
ATOM      1  S   UNL     1      34.500 -15.423 -24.005  0.00  0.00    -0.119 S 
ATOM      2  O   UNL     1      32.467 -14.676 -20.168  0.00  0.00    -0.273 OA
ATOM      3  N   UNL     1      33.723 -13.937 -22.025  0.00  0.00    -0.260 N 
ATOM      4  C   UNL     1      34.923 -14.704 -22.377  0.00  0.00    +0.149 C 
ATOM      5  C   UNL     1      33.438 -13.952 -24.422  0.00  0.00    +0.068 C 
ATOM      6  C   UNL     1      32.790 -13.575 -23.072  0.00  0.00    +0.185 C 
ATOM      7  C   UNL     1      34.649 -15.575 -21.143  0.00  0.00    +0.179 C 
ATOM      8  C   UNL     1      33.417 -14.675 -20.919  0.00  0.00    +0.245 C 
ATOM      9  C   UNL     1      32.385 -14.373 -25.449  0.00  0.00    +0.013 C 
ATOM     10  C   UNL     1      34.346 -12.867 -25.017  0.00  0.00    +0.013 C 
ENDROOT
BRANCH   6  12
ATOM     11  O   UNL     1      32.998 -11.227 -23.541  0.00  0.00    -0.248 OA
ATOM     12  C   UNL     1      32.472 -12.124 -22.898  0.00  0.00    +0.339 C 
BRANCH  12  13
ATOM     13  O   UNL     1      31.522 -11.980 -21.933  0.00  0.00    -0.407 OA
BRANCH  13  14
ATOM     14  C   UNL     1      30.783 -10.747 -21.948  0.00  0.00    +0.433 C 
BRANCH  14  15
ATOM     15  O   UNL     1      31.555  -9.612 -21.519  0.00  0.00    -0.408 OA
BRANCH  15  17
ATOM     16  O   UNL     1      30.916  -8.433 -23.389  0.00  0.00    -0.250 OA
ATOM     17  C   UNL     1      31.578  -8.538 -22.363  0.00  0.00    +0.319 C 
BRANCH  17  18
ATOM     18  C   UNL     1      32.562  -7.481 -21.854  0.00  0.00    +0.090 C 
ATOM     19  C   UNL     1      32.829  -7.705 -20.357  0.00  0.00    +0.011 C 
ATOM     20  C   UNL     1      31.954  -6.086 -22.049  0.00  0.00    +0.011 C 
ATOM     21  C   UNL     1      33.888  -7.600 -22.619  0.00  0.00    +0.011 C 
ENDBRANCH  17  18
ENDBRANCH  15  17
ENDBRANCH  14  15
ENDBRANCH  13  14
ENDBRANCH  12  13
ENDBRANCH   6  12
BRANCH   7  22
ATOM     22  N   UNL     1      34.276 -16.948 -21.415  0.00  0.00    -0.190 NA
BRANCH  22  23
ATOM     23  C   UNL     1      34.945 -17.825 -20.732  0.00  0.00    +0.164 C 
BRANCH  23  24
ATOM     24  N   UNL     1      34.970 -19.169 -20.913  0.00  0.00    -0.258 NA
ATOM     25  C   UNL     1      36.210 -19.918 -20.713  0.00  0.00    +0.073 C 
ATOM     26  C   UNL     1      33.775 -19.883 -21.356  0.00  0.00    +0.073 C 
ATOM     27  C   UNL     1      36.020 -21.354 -20.231  0.00  0.00    +0.017 C 
ATOM     28  C   UNL     1      32.991 -20.392 -20.150  0.00  0.00    +0.017 C 
ATOM     29  C   UNL     1      35.050 -21.500 -19.058  0.00  0.00    +0.001 C 
ATOM     30  C   UNL     1      33.592 -21.636 -19.499  0.00  0.00    +0.001 C 
ENDBRANCH  23  24
ENDBRANCH  22  23
ENDBRANCH   7  22
TORSDOF 9
ENDMDL
MODEL 7
REMARK VINA RESULT:      -7.7      5.140     11.421
REMARK  Name = 115163
REMARK  9 active torsions:
REMARK  status: ('A' for Active; 'I' for Inactive)
REMARK    1  A    between atoms: C_6  and  C_21
REMARK    2  A    between atoms: C_7  and  N_11
REMARK    3  A    between atoms: N_11  and  C_13
REMARK    4  A    between atoms: N_12  and  C_13
REMARK    5  A    between atoms: C_21  and  O_22
REMARK    6  A    between atoms: O_22  and  C_23
REMARK    7  A    between atoms: C_23  and  O_24
REMARK    8  A    between atoms: O_24  and  C_26
REMARK    9  A    between atoms: C_26  and  C_27
REMARK                            x       y       z     vdW  Elec       q    Type
REMARK                         _______ _______ _______ _____ _____    ______ ____
ROOT
ATOM      1  S   UNL     1      36.496 -19.615 -20.415  0.00  0.00    -0.119 S 
ATOM      2  O   UNL     1      32.172 -20.028 -19.678  0.00  0.00    -0.273 OA
ATOM      3  N   UNL     1      34.267 -20.935 -20.279  0.00  0.00    -0.260 N 
ATOM      4  C   UNL     1      35.032 -20.238 -21.317  0.00  0.00    +0.149 C 
ATOM      5  C   UNL     1      36.449 -21.073 -19.256  0.00  0.00    +0.068 C 
ATOM      6  C   UNL     1      34.940 -21.333 -19.059  0.00  0.00    +0.185 C 
ATOM      7  C   UNL     1      33.843 -19.275 -21.455  0.00  0.00    +0.179 C 
ATOM      8  C   UNL     1      33.179 -20.113 -20.344  0.00  0.00    +0.245 C 
ATOM      9  C   UNL     1      37.125 -20.684 -17.940  0.00  0.00    +0.013 C 
ATOM     10  C   UNL     1      37.213 -22.227 -19.918  0.00  0.00    +0.013 C 
ENDROOT
BRANCH   6  12
ATOM     11  O   UNL     1      33.977 -23.470 -19.593  0.00  0.00    -0.248 OA
ATOM     12  C   UNL     1      34.566 -22.757 -18.793  0.00  0.00    +0.339 C 
BRANCH  12  13
ATOM     13  O   UNL     1      34.986 -23.112 -17.547  0.00  0.00    -0.407 OA
BRANCH  13  14
ATOM     14  C   UNL     1      33.967 -23.563 -16.639  0.00  0.00    +0.433 C 
BRANCH  14  15
ATOM     15  O   UNL     1      34.474 -23.914 -15.340  0.00  0.00    -0.408 OA
BRANCH  15  17
ATOM     16  O   UNL     1      35.456 -25.913 -15.914  0.00  0.00    -0.250 OA
ATOM     17  C   UNL     1      35.468 -24.849 -15.305  0.00  0.00    +0.319 C 
BRANCH  17  18
ATOM     18  C   UNL     1      36.602 -24.391 -14.384  0.00  0.00    +0.090 C 
ATOM     19  C   UNL     1      37.701 -23.714 -15.220  0.00  0.00    +0.011 C 
ATOM     20  C   UNL     1      37.198 -25.610 -13.667  0.00  0.00    +0.011 C 
ATOM     21  C   UNL     1      36.060 -23.380 -13.364  0.00  0.00    +0.011 C 
ENDBRANCH  17  18
ENDBRANCH  15  17
ENDBRANCH  14  15
ENDBRANCH  13  14
ENDBRANCH  12  13
ENDBRANCH   6  12
BRANCH   7  22
ATOM     22  N   UNL     1      34.089 -17.912 -21.034  0.00  0.00    -0.190 NA
BRANCH  22  23
ATOM     23  C   UNL     1      33.601 -17.013 -21.833  0.00  0.00    +0.164 C 
BRANCH  23  24
ATOM     24  N   UNL     1      34.226 -16.402 -22.870  0.00  0.00    -0.258 NA
ATOM     25  C   UNL     1      34.743 -17.191 -23.987  0.00  0.00    +0.073 C 
ATOM     26  C   UNL     1      34.437 -14.957 -22.866  0.00  0.00    +0.073 C 
ATOM     27  C   UNL     1      34.747 -16.469 -25.332  0.00  0.00    +0.017 C 
ATOM     28  C   UNL     1      33.284 -14.257 -23.579  0.00  0.00    +0.017 C 
ATOM     29  C   UNL     1      33.434 -15.763 -25.670  0.00  0.00    +0.001 C 
ATOM     30  C   UNL     1      33.352 -14.345 -25.103  0.00  0.00    +0.001 C 
ENDBRANCH  23  24
ENDBRANCH  22  23
ENDBRANCH   7  22
TORSDOF 9
ENDMDL
MODEL 8
REMARK VINA RESULT:      -7.5      2.793      9.809
REMARK  Name = 115163
REMARK  9 active torsions:
REMARK  status: ('A' for Active; 'I' for Inactive)
REMARK    1  A    between atoms: C_6  and  C_21
REMARK    2  A    between atoms: C_7  and  N_11
REMARK    3  A    between atoms: N_11  and  C_13
REMARK    4  A    between atoms: N_12  and  C_13
REMARK    5  A    between atoms: C_21  and  O_22
REMARK    6  A    between atoms: O_22  and  C_23
REMARK    7  A    between atoms: C_23  and  O_24
REMARK    8  A    between atoms: O_24  and  C_26
REMARK    9  A    between atoms: C_26  and  C_27
REMARK                            x       y       z     vdW  Elec       q    Type
REMARK                         _______ _______ _______ _____ _____    ______ ____
ROOT
ATOM      1  S   UNL     1      33.413 -15.025 -24.682  0.00  0.00    -0.119 S 
ATOM      2  O   UNL     1      35.100 -14.464 -20.651  0.00  0.00    -0.273 OA
ATOM      3  N   UNL     1      34.015 -15.787 -22.276  0.00  0.00    -0.260 N 
ATOM      4  C   UNL     1      32.849 -15.208 -22.951  0.00  0.00    +0.149 C 
ATOM      5  C   UNL     1      34.512 -16.521 -24.522  0.00  0.00    +0.068 C 
ATOM      6  C   UNL     1      35.038 -16.433 -23.073  0.00  0.00    +0.185 C 
ATOM      7  C   UNL     1      33.011 -13.984 -22.038  0.00  0.00    +0.179 C 
ATOM      8  C   UNL     1      34.220 -14.730 -21.438  0.00  0.00    +0.245 C 
ATOM      9  C   UNL     1      35.651 -16.412 -25.537  0.00  0.00    +0.013 C 
ATOM     10  C   UNL     1      33.663 -17.765 -24.816  0.00  0.00    +0.013 C 
ENDROOT
BRANCH   6  12
ATOM     11  O   UNL     1      36.386 -18.362 -22.584  0.00  0.00    -0.248 OA
ATOM     12  C   UNL     1      35.343 -17.744 -22.423  0.00  0.00    +0.339 C 
BRANCH  12  13
ATOM     13  O   UNL     1      34.292 -18.119 -21.641  0.00  0.00    -0.407 OA
BRANCH  13  14
ATOM     14  C   UNL     1      34.028 -19.530 -21.565  0.00  0.00    +0.433 C 
BRANCH  14  15
ATOM     15  O   UNL     1      34.529 -20.142 -20.364  0.00  0.00    -0.408 OA
BRANCH  15  17
ATOM     16  O   UNL     1      32.461 -20.746 -19.556  0.00  0.00    -0.250 OA
ATOM     17  C   UNL     1      33.662 -20.951 -19.686  0.00  0.00    +0.319 C 
BRANCH  17  18
ATOM     18  C   UNL     1      34.405 -22.152 -19.095  0.00  0.00    +0.090 C 
ATOM     19  C   UNL     1      33.667 -22.646 -17.839  0.00  0.00    +0.011 C 
ATOM     20  C   UNL     1      35.827 -21.728 -18.704  0.00  0.00    +0.011 C 
ATOM     21  C   UNL     1      34.449 -23.290 -20.125  0.00  0.00    +0.011 C 
ENDBRANCH  17  18
ENDBRANCH  15  17
ENDBRANCH  14  15
ENDBRANCH  13  14
ENDBRANCH  12  13
ENDBRANCH   6  12
BRANCH   7  22
ATOM     22  N   UNL     1      33.403 -12.756 -22.699  0.00  0.00    -0.190 NA
BRANCH  22  23
ATOM     23  C   UNL     1      32.624 -11.748 -22.452  0.00  0.00    +0.164 C 
BRANCH  23  24
ATOM     24  N   UNL     1      32.544 -10.579 -23.136  0.00  0.00    -0.258 NA
ATOM     25  C   UNL     1      31.614  -9.535 -22.705  0.00  0.00    +0.073 C 
ATOM     26  C   UNL     1      33.344 -10.363 -24.338  0.00  0.00    +0.073 C 
ATOM     27  C   UNL     1      32.068  -8.110 -23.011  0.00  0.00    +0.017 C 
ATOM     28  C   UNL     1      34.660  -9.679 -23.976  0.00  0.00    +0.017 C 
ATOM     29  C   UNL     1      33.513  -7.811 -22.612  0.00  0.00    +0.001 C 
ATOM     30  C   UNL     1      34.524  -8.183 -23.698  0.00  0.00    +0.001 C 
ENDBRANCH  23  24
ENDBRANCH  22  23
ENDBRANCH   7  22
TORSDOF 9
ENDMDL
MODEL 9
REMARK VINA RESULT:      -7.3      2.039      2.610
REMARK  Name = 115163
REMARK  9 active torsions:
REMARK  status: ('A' for Active; 'I' for Inactive)
REMARK    1  A    between atoms: C_6  and  C_21
REMARK    2  A    between atoms: C_7  and  N_11
REMARK    3  A    between atoms: N_11  and  C_13
REMARK    4  A    between atoms: N_12  and  C_13
REMARK    5  A    between atoms: C_21  and  O_22
REMARK    6  A    between atoms: O_22  and  C_23
REMARK    7  A    between atoms: C_23  and  O_24
REMARK    8  A    between atoms: O_24  and  C_26
REMARK    9  A    between atoms: C_26  and  C_27
REMARK                            x       y       z     vdW  Elec       q    Type
REMARK                         _______ _______ _______ _____ _____    ______ ____
ROOT
ATOM      1  S   UNL     1      34.653 -17.032 -24.207  0.00  0.00    -0.119 S 
ATOM      2  O   UNL     1      32.715 -14.264 -21.379  0.00  0.00    -0.273 OA
ATOM      3  N   UNL     1      34.114 -14.689 -23.232  0.00  0.00    -0.260 N 
ATOM      4  C   UNL     1      35.167 -15.696 -23.067  0.00  0.00    +0.149 C 
ATOM      5  C   UNL     1      33.873 -15.797 -25.363  0.00  0.00    +0.068 C 
ATOM      6  C   UNL     1      33.278 -14.735 -24.414  0.00  0.00    +0.185 C 
ATOM      7  C   UNL     1      34.722 -15.827 -21.604  0.00  0.00    +0.179 C 
ATOM      8  C   UNL     1      33.664 -14.759 -21.946  0.00  0.00    +0.245 C 
ATOM      9  C   UNL     1      32.781 -16.496 -26.174  0.00  0.00    +0.013 C 
ATOM     10  C   UNL     1      34.968 -15.270 -26.301  0.00  0.00    +0.013 C 
ENDROOT
BRANCH   6  12
ATOM     11  O   UNL     1      32.981 -13.086 -26.138  0.00  0.00    -0.248 OA
ATOM     12  C   UNL     1      33.216 -13.346 -24.966  0.00  0.00    +0.339 C 
BRANCH  12  13
ATOM     13  O   UNL     1      33.457 -12.449 -23.969  0.00  0.00    -0.407 OA
BRANCH  13  14
ATOM     14  C   UNL     1      33.918 -11.152 -24.380  0.00  0.00    +0.433 C 
BRANCH  14  15
ATOM     15  O   UNL     1      33.213 -10.068 -23.751  0.00  0.00    -0.408 OA
BRANCH  15  17
ATOM     16  O   UNL     1      35.089  -8.738 -23.802  0.00  0.00    -0.250 OA
ATOM     17  C   UNL     1      33.881  -8.881 -23.655  0.00  0.00    +0.319 C 
BRANCH  17  18
ATOM     18  C   UNL     1      32.908  -7.746 -23.324  0.00  0.00    +0.090 C 
ATOM     19  C   UNL     1      31.468  -8.202 -23.612  0.00  0.00    +0.011 C 
ATOM     20  C   UNL     1      33.231  -6.528 -24.200  0.00  0.00    +0.011 C 
ATOM     21  C   UNL     1      33.026  -7.383 -21.837  0.00  0.00    +0.011 C 
ENDBRANCH  17  18
ENDBRANCH  15  17
ENDBRANCH  14  15
ENDBRANCH  13  14
ENDBRANCH  12  13
ENDBRANCH   6  12
BRANCH   7  22
ATOM     22  N   UNL     1      34.119 -17.093 -21.242  0.00  0.00    -0.190 NA
BRANCH  22  23
ATOM     23  C   UNL     1      34.934 -17.926 -20.673  0.00  0.00    +0.164 C 
BRANCH  23  24
ATOM     24  N   UNL     1      34.992 -19.271 -20.840  0.00  0.00    -0.258 NA
ATOM     25  C   UNL     1      36.251 -19.987 -20.635  0.00  0.00    +0.073 C 
ATOM     26  C   UNL     1      33.815 -20.018 -21.276  0.00  0.00    +0.073 C 
ATOM     27  C   UNL     1      36.096 -21.423 -20.139  0.00  0.00    +0.017 C 
ATOM     28  C   UNL     1      33.044 -20.535 -20.064  0.00  0.00    +0.017 C 
ATOM     29  C   UNL     1      35.132 -21.581 -18.963  0.00  0.00    +0.001 C 
ATOM     30  C   UNL     1      33.677 -21.757 -19.401  0.00  0.00    +0.001 C 
ENDBRANCH  23  24
ENDBRANCH  22  23
ENDBRANCH   7  22
TORSDOF 9
ENDMDL
