MODEL 1
REMARK VINA RESULT:      -6.0      0.000      0.000
REMARK  Name = 342
REMARK  1 active torsions:
REMARK  status: ('A' for Active; 'I' for Inactive)
REMARK    1  A    between atoms: C_4  and  O_8
REMARK                            x       y       z     vdW  Elec       q    Type
REMARK                         _______ _______ _______ _____ _____    ______ ____
ROOT
ATOM      1  C   UNL     1      35.177 -19.527 -20.954  0.00  0.00    -0.019 C 
ATOM      2  C   UNL     1      35.658 -20.595 -20.196  0.00  0.00    +0.032 C 
ATOM      3  C   UNL     1      33.801 -19.321 -21.073  0.00  0.00    -0.004 C 
ATOM      4  C   UNL     1      34.767 -21.457 -19.559  0.00  0.00    +0.133 C 
ATOM      5  C   UNL     1      36.130 -18.605 -21.636  0.00  0.00    +0.031 C 
ATOM      6  C   UNL     1      32.910 -20.183 -20.435  0.00  0.00    +0.003 C 
ATOM      7  C   UNL     1      33.392 -21.251 -19.678  0.00  0.00    +0.037 C 
ENDROOT
BRANCH   4   8
ATOM      8  O   UNL     1      35.237 -22.498 -18.820  0.00  0.00    -0.506 OA
ATOM      9  H   UNL     1      36.101 -22.829 -18.973  0.00  0.00    +0.292 HD
ENDBRANCH   4   8
TORSDOF 1
ENDMDL
MODEL 2
REMARK VINA RESULT:      -5.9      1.323      2.193
REMARK  Name = 342
REMARK  1 active torsions:
REMARK  status: ('A' for Active; 'I' for Inactive)
REMARK    1  A    between atoms: C_4  and  O_8
REMARK                            x       y       z     vdW  Elec       q    Type
REMARK                         _______ _______ _______ _____ _____    ______ ____
ROOT
ATOM      1  C   UNL     1      34.498 -19.910 -20.756  0.00  0.00    -0.019 C 
ATOM      2  C   UNL     1      33.400 -20.527 -20.157  0.00  0.00    +0.032 C 
ATOM      3  C   UNL     1      35.788 -20.377 -20.498  0.00  0.00    -0.004 C 
ATOM      4  C   UNL     1      33.590 -21.611 -19.300  0.00  0.00    +0.133 C 
ATOM      5  C   UNL     1      34.295 -18.751 -21.672  0.00  0.00    +0.031 C 
ATOM      6  C   UNL     1      35.978 -21.461 -19.641  0.00  0.00    +0.003 C 
ATOM      7  C   UNL     1      34.880 -22.079 -19.043  0.00  0.00    +0.037 C 
ENDROOT
BRANCH   4   8
ATOM      8  O   UNL     1      32.519 -22.214 -18.716  0.00  0.00    -0.506 OA
ATOM      9  H   UNL     1      31.695 -22.240 -19.163  0.00  0.00    +0.292 HD
ENDBRANCH   4   8
TORSDOF 1
ENDMDL
MODEL 3
REMARK VINA RESULT:      -5.7      1.613      2.939
REMARK  Name = 342
REMARK  1 active torsions:
REMARK  status: ('A' for Active; 'I' for Inactive)
REMARK    1  A    between atoms: C_4  and  O_8
REMARK                            x       y       z     vdW  Elec       q    Type
REMARK                         _______ _______ _______ _____ _____    ______ ____
ROOT
ATOM      1  C   UNL     1      34.124 -21.456 -19.562  0.00  0.00    -0.019 C 
ATOM      2  C   UNL     1      35.451 -21.066 -19.740  0.00  0.00    +0.032 C 
ATOM      3  C   UNL     1      33.096 -20.726 -20.160  0.00  0.00    -0.004 C 
ATOM      4  C   UNL     1      35.751 -19.946 -20.514  0.00  0.00    +0.133 C 
ATOM      5  C   UNL     1      33.802 -22.654 -18.733  0.00  0.00    +0.031 C 
ATOM      6  C   UNL     1      33.396 -19.606 -20.934  0.00  0.00    +0.003 C 
ATOM      7  C   UNL     1      34.723 -19.215 -21.112  0.00  0.00    +0.037 C 
ENDROOT
BRANCH   4   8
ATOM      8  O   UNL     1      37.046 -19.565 -20.688  0.00  0.00    -0.506 OA
ATOM      9  H   UNL     1      37.551 -19.926 -21.390  0.00  0.00    +0.292 HD
ENDBRANCH   4   8
TORSDOF 1
ENDMDL
MODEL 4
REMARK VINA RESULT:      -5.5      4.118      5.132
REMARK  Name = 342
REMARK  1 active torsions:
REMARK  status: ('A' for Active; 'I' for Inactive)
REMARK    1  A    between atoms: C_4  and  O_8
REMARK                            x       y       z     vdW  Elec       q    Type
REMARK                         _______ _______ _______ _____ _____    ______ ____
ROOT
ATOM      1  C   UNL     1      34.747 -16.960 -22.086  0.00  0.00    -0.019 C 
ATOM      2  C   UNL     1      34.774 -16.440 -23.380  0.00  0.00    +0.032 C 
ATOM      3  C   UNL     1      34.750 -18.342 -21.890  0.00  0.00    -0.004 C 
ATOM      4  C   UNL     1      34.804 -17.299 -24.478  0.00  0.00    +0.133 C 
ATOM      5  C   UNL     1      34.715 -16.041 -20.912  0.00  0.00    +0.031 C 
ATOM      6  C   UNL     1      34.780 -19.201 -22.987  0.00  0.00    +0.003 C 
ATOM      7  C   UNL     1      34.807 -18.681 -24.281  0.00  0.00    +0.037 C 
ENDROOT
BRANCH   4   8
ATOM      8  O   UNL     1      34.830 -16.792 -25.740  0.00  0.00    -0.506 OA
ATOM      9  H   UNL     1      35.211 -15.950 -25.898  0.00  0.00    +0.292 HD
ENDBRANCH   4   8
TORSDOF 1
ENDMDL
MODEL 5
REMARK VINA RESULT:      -5.5      3.191      4.155
REMARK  Name = 342
REMARK  1 active torsions:
REMARK  status: ('A' for Active; 'I' for Inactive)
REMARK    1  A    between atoms: C_4  and  O_8
REMARK                            x       y       z     vdW  Elec       q    Type
REMARK                         _______ _______ _______ _____ _____    ______ ____
ROOT
ATOM      1  C   UNL     1      34.835 -17.547 -23.755  0.00  0.00    -0.019 C 
ATOM      2  C   UNL     1      34.953 -16.690 -22.660  0.00  0.00    +0.032 C 
ATOM      3  C   UNL     1      34.781 -18.927 -23.558  0.00  0.00    -0.004 C 
ATOM      4  C   UNL     1      35.016 -17.213 -21.369  0.00  0.00    +0.133 C 
ATOM      5  C   UNL     1      34.768 -16.988 -25.136  0.00  0.00    +0.031 C 
ATOM      6  C   UNL     1      34.844 -19.450 -22.267  0.00  0.00    +0.003 C 
ATOM      7  C   UNL     1      34.961 -18.593 -21.172  0.00  0.00    +0.037 C 
ENDROOT
BRANCH   4   8
ATOM      8  O   UNL     1      35.130 -16.378 -20.301  0.00  0.00    -0.506 OA
ATOM      9  H   UNL     1      34.363 -15.996 -19.920  0.00  0.00    +0.292 HD
ENDBRANCH   4   8
TORSDOF 1
ENDMDL
MODEL 6
REMARK VINA RESULT:      -5.5      2.447      3.850
REMARK  Name = 342
REMARK  1 active torsions:
REMARK  status: ('A' for Active; 'I' for Inactive)
REMARK    1  A    between atoms: C_4  and  O_8
REMARK                            x       y       z     vdW  Elec       q    Type
REMARK                         _______ _______ _______ _____ _____    ______ ____
ROOT
ATOM      1  C   UNL     1      34.227 -19.884 -20.793  0.00  0.00    -0.019 C 
ATOM      2  C   UNL     1      34.470 -18.849 -21.696  0.00  0.00    +0.032 C 
ATOM      3  C   UNL     1      35.292 -20.501 -20.136  0.00  0.00    -0.004 C 
ATOM      4  C   UNL     1      35.777 -18.429 -21.942  0.00  0.00    +0.133 C 
ATOM      5  C   UNL     1      32.829 -20.332 -20.530  0.00  0.00    +0.031 C 
ATOM      6  C   UNL     1      36.599 -20.082 -20.382  0.00  0.00    +0.003 C 
ATOM      7  C   UNL     1      36.842 -19.047 -21.285  0.00  0.00    +0.037 C 
ENDROOT
BRANCH   4   8
ATOM      8  O   UNL     1      36.014 -17.419 -22.822  0.00  0.00    -0.506 OA
ATOM      9  H   UNL     1      36.679 -16.785 -22.638  0.00  0.00    +0.292 HD
ENDBRANCH   4   8
TORSDOF 1
ENDMDL
MODEL 7
REMARK VINA RESULT:      -5.4      1.778      2.971
REMARK  Name = 342
REMARK  1 active torsions:
REMARK  status: ('A' for Active; 'I' for Inactive)
REMARK    1  A    between atoms: C_4  and  O_8
REMARK                            x       y       z     vdW  Elec       q    Type
REMARK                         _______ _______ _______ _____ _____    ______ ____
ROOT
ATOM      1  C   UNL     1      33.902 -20.388 -20.326  0.00  0.00    -0.019 C 
ATOM      2  C   UNL     1      35.017 -19.683 -20.782  0.00  0.00    +0.032 C 
ATOM      3  C   UNL     1      34.069 -21.491 -19.489  0.00  0.00    -0.004 C 
ATOM      4  C   UNL     1      36.298 -20.081 -20.400  0.00  0.00    +0.133 C 
ATOM      5  C   UNL     1      32.533 -19.962 -20.734  0.00  0.00    +0.031 C 
ATOM      6  C   UNL     1      35.350 -21.889 -19.108  0.00  0.00    +0.003 C 
ATOM      7  C   UNL     1      36.465 -21.185 -19.563  0.00  0.00    +0.037 C 
ENDROOT
BRANCH   4   8
ATOM      8  O   UNL     1      37.385 -19.394 -20.844  0.00  0.00    -0.506 OA
ATOM      9  H   UNL     1      38.233 -19.794 -20.822  0.00  0.00    +0.292 HD
ENDBRANCH   4   8
TORSDOF 1
ENDMDL
MODEL 8
REMARK VINA RESULT:      -5.4      1.917      3.700
REMARK  Name = 342
REMARK  1 active torsions:
REMARK  status: ('A' for Active; 'I' for Inactive)
REMARK    1  A    between atoms: C_4  and  O_8
REMARK                            x       y       z     vdW  Elec       q    Type
REMARK                         _______ _______ _______ _____ _____    ______ ____
ROOT
ATOM      1  C   UNL     1      34.197 -21.826 -19.075  0.00  0.00    -0.019 C 
ATOM      2  C   UNL     1      33.567 -20.913 -19.920  0.00  0.00    +0.032 C 
ATOM      3  C   UNL     1      35.591 -21.873 -19.013  0.00  0.00    -0.004 C 
ATOM      4  C   UNL     1      34.328 -20.046 -20.703  0.00  0.00    +0.133 C 
ATOM      5  C   UNL     1      33.383 -22.753 -18.237  0.00  0.00    +0.031 C 
ATOM      6  C   UNL     1      36.352 -21.006 -19.797  0.00  0.00    +0.003 C 
ATOM      7  C   UNL     1      35.721 -20.093 -20.642  0.00  0.00    +0.037 C 
ENDROOT
BRANCH   4   8
ATOM      8  O   UNL     1      33.713 -19.156 -21.528  0.00  0.00    -0.506 OA
ATOM      9  H   UNL     1      33.208 -19.462 -22.256  0.00  0.00    +0.292 HD
ENDBRANCH   4   8
TORSDOF 1
ENDMDL
MODEL 9
REMARK VINA RESULT:      -5.4      3.981      5.241
REMARK  Name = 342
REMARK  1 active torsions:
REMARK  status: ('A' for Active; 'I' for Inactive)
REMARK    1  A    between atoms: C_4  and  O_8
REMARK                            x       y       z     vdW  Elec       q    Type
REMARK                         _______ _______ _______ _____ _____    ______ ____
ROOT
ATOM      1  C   UNL     1      34.912 -18.696 -22.638  0.00  0.00    -0.019 C 
ATOM      2  C   UNL     1      35.018 -17.324 -22.412  0.00  0.00    +0.032 C 
ATOM      3  C   UNL     1      34.691 -19.176 -23.930  0.00  0.00    -0.004 C 
ATOM      4  C   UNL     1      34.902 -16.430 -23.476  0.00  0.00    +0.133 C 
ATOM      5  C   UNL     1      35.036 -19.652 -21.499  0.00  0.00    +0.031 C 
ATOM      6  C   UNL     1      34.576 -18.282 -24.994  0.00  0.00    +0.003 C 
ATOM      7  C   UNL     1      34.681 -16.910 -24.768  0.00  0.00    +0.037 C 
ENDROOT
BRANCH   4   8
ATOM      8  O   UNL     1      35.005 -15.092 -23.256  0.00  0.00    -0.506 OA
ATOM      9  H   UNL     1      35.017 -14.497 -23.981  0.00  0.00    +0.292 HD
ENDBRANCH   4   8
TORSDOF 1
ENDMDL
