MODEL 1
REMARK VINA RESULT:      -9.9      0.000      0.000
REMARK  Name = 247839
REMARK  2 active torsions:
REMARK  status: ('A' for Active; 'I' for Inactive)
REMARK    1  A    between atoms: C_8  and  O_25
REMARK    2  A    between atoms: C_9  and  C_23
REMARK                            x       y       z     vdW  Elec       q    Type
REMARK                         _______ _______ _______ _____ _____    ______ ____
ROOT
ATOM      1  O   UNL     1      39.925 -25.898 -14.810  0.00  0.00    -0.291 OA
ATOM      2  C   UNL     1      32.829 -23.506 -16.032  0.00  0.00    +0.001 C 
ATOM      3  C   UNL     1      31.753 -23.865 -14.989  0.00  0.00    +0.009 C 
ATOM      4  C   UNL     1      34.194 -23.178 -15.411  0.00  0.00    +0.003 C 
ATOM      5  C   UNL     1      34.697 -24.427 -14.622  0.00  0.00    +0.030 C 
ATOM      6  C   UNL     1      36.154 -24.237 -14.031  0.00  0.00    +0.018 C 
ATOM      7  C   UNL     1      32.224 -25.128 -14.245  0.00  0.00    +0.030 C 
ATOM      8  C   UNL     1      33.627 -24.967 -13.619  0.00  0.00    +0.111 C 
ATOM      9  C   UNL     1      30.555 -24.096 -15.940  0.00  0.00    +0.058 C 
ATOM     10  C   UNL     1      32.136 -22.469 -16.910  0.00  0.00    +0.000 C 
ATOM     11  C   UNL     1      35.202 -22.795 -16.505  0.00  0.00    +0.004 C 
ATOM     12  C   UNL     1      30.684 -22.975 -16.991  0.00  0.00    +0.007 C 
ATOM     13  C   UNL     1      36.598 -22.526 -15.934  0.00  0.00    +0.018 C 
ATOM     14  C   UNL     1      37.099 -23.739 -15.148  0.00  0.00    -0.042 C 
ATOM     15  C   UNL     1      31.439 -22.719 -13.993  0.00  0.00    +0.001 C 
ATOM     16  C   UNL     1      36.625 -25.621 -13.493  0.00  0.00    +0.012 C 
ATOM     17  C   UNL     1      36.225 -23.208 -12.879  0.00  0.00    +0.004 C 
ATOM     18  C   UNL     1      38.121 -25.703 -13.252  0.00  0.00    +0.069 C 
ATOM     19  C   UNL     1      38.299 -24.302 -15.387  0.00  0.00    +0.029 C 
ATOM     20  C   UNL     1      37.509 -22.024 -17.064  0.00  0.00    +0.004 C 
ATOM     21  C   UNL     1      38.855 -25.368 -14.521  0.00  0.00    +0.173 C 
ENDROOT
BRANCH   9  23
ATOM     22  O   UNL     1      28.886 -25.001 -14.496  0.00  0.00    -0.296 OA
ATOM     23  C   UNL     1      29.220 -24.099 -15.262  0.00  0.00    +0.151 C 
ATOM     24  C   UNL     1      28.307 -22.940 -15.560  0.00  0.00    +0.072 C 
ENDBRANCH   9  23
BRANCH   8  25
ATOM     25  O   UNL     1      33.536 -24.138 -12.469  0.00  0.00    -0.384 OA
ATOM     26  H   UNL     1      32.606 -24.053 -12.205  0.00  0.00    +0.210 HD
ENDBRANCH   8  25
TORSDOF 2
ENDMDL
MODEL 2
REMARK VINA RESULT:      -8.2     10.658     13.106
REMARK  Name = 247839
REMARK  2 active torsions:
REMARK  status: ('A' for Active; 'I' for Inactive)
REMARK    1  A    between atoms: C_8  and  O_25
REMARK    2  A    between atoms: C_9  and  C_23
REMARK                            x       y       z     vdW  Elec       q    Type
REMARK                         _______ _______ _______ _____ _____    ______ ____
ROOT
ATOM      1  O   UNL     1      34.387  -9.783 -25.331  0.00  0.00    -0.291 OA
ATOM      2  C   UNL     1      34.711 -17.129 -23.461  0.00  0.00    +0.001 C 
ATOM      3  C   UNL     1      34.663 -17.499 -21.966  0.00  0.00    +0.009 C 
ATOM      4  C   UNL     1      33.802 -15.946 -23.826  0.00  0.00    +0.003 C 
ATOM      5  C   UNL     1      34.259 -14.695 -23.012  0.00  0.00    +0.030 C 
ATOM      6  C   UNL     1      33.457 -13.385 -23.395  0.00  0.00    +0.018 C 
ATOM      7  C   UNL     1      35.164 -16.283 -21.165  0.00  0.00    +0.030 C 
ATOM      8  C   UNL     1      34.378 -14.991 -21.482  0.00  0.00    +0.111 C 
ATOM      9  C   UNL     1      35.640 -18.699 -21.977  0.00  0.00    +0.058 C 
ATOM     10  C   UNL     1      34.516 -18.469 -24.162  0.00  0.00    +0.000 C 
ATOM     11  C   UNL     1      33.875 -15.661 -25.333  0.00  0.00    +0.004 C 
ATOM     12  C   UNL     1      35.290 -19.460 -23.273  0.00  0.00    +0.007 C 
ATOM     13  C   UNL     1      33.034 -14.443 -25.729  0.00  0.00    +0.018 C 
ATOM     14  C   UNL     1      33.464 -13.210 -24.931  0.00  0.00    -0.042 C 
ATOM     15  C   UNL     1      33.261 -17.947 -21.476  0.00  0.00    +0.001 C 
ATOM     16  C   UNL     1      34.169 -12.183 -22.706  0.00  0.00    +0.012 C 
ATOM     17  C   UNL     1      31.979 -13.409 -22.944  0.00  0.00    +0.004 C 
ATOM     18  C   UNL     1      33.770 -10.833 -23.273  0.00  0.00    +0.069 C 
ATOM     19  C   UNL     1      33.782 -12.045 -25.527  0.00  0.00    +0.029 C 
ATOM     20  C   UNL     1      33.051 -14.303 -27.258  0.00  0.00    +0.004 C 
ATOM     21  C   UNL     1      34.039 -10.809 -24.753  0.00  0.00    +0.173 C 
ENDROOT
BRANCH   9  23
ATOM     22  O   UNL     1      36.439 -19.550 -19.898  0.00  0.00    -0.296 OA
ATOM     23  C   UNL     1      35.563 -19.569 -20.761  0.00  0.00    +0.151 C 
ATOM     24  C   UNL     1      34.360 -20.465 -20.643  0.00  0.00    +0.072 C 
ENDBRANCH   9  23
BRANCH   8  25
ATOM     25  O   UNL     1      33.097 -15.059 -20.871  0.00  0.00    -0.384 OA
ATOM     26  H   UNL     1      33.078 -14.479 -20.094  0.00  0.00    +0.210 HD
ENDBRANCH   8  25
TORSDOF 2
ENDMDL
MODEL 3
REMARK VINA RESULT:      -7.9      3.341      6.450
REMARK  Name = 247839
REMARK  2 active torsions:
REMARK  status: ('A' for Active; 'I' for Inactive)
REMARK    1  A    between atoms: C_8  and  O_25
REMARK    2  A    between atoms: C_9  and  C_23
REMARK                            x       y       z     vdW  Elec       q    Type
REMARK                         _______ _______ _______ _____ _____    ______ ____
ROOT
ATOM      1  O   UNL     1      33.170 -18.665 -21.580  0.00  0.00    -0.291 OA
ATOM      2  C   UNL     1      36.197 -22.540 -15.802  0.00  0.00    +0.001 C 
ATOM      3  C   UNL     1      35.319 -23.589 -15.093  0.00  0.00    +0.009 C 
ATOM      4  C   UNL     1      35.975 -22.484 -17.320  0.00  0.00    +0.003 C 
ATOM      5  C   UNL     1      34.483 -22.116 -17.594  0.00  0.00    +0.030 C 
ATOM      6  C   UNL     1      34.169 -21.921 -19.133  0.00  0.00    +0.018 C 
ATOM      7  C   UNL     1      33.847 -23.198 -15.319  0.00  0.00    +0.030 C 
ATOM      8  C   UNL     1      33.491 -23.037 -16.814  0.00  0.00    +0.111 C 
ATOM      9  C   UNL     1      35.816 -23.388 -13.642  0.00  0.00    +0.058 C 
ATOM     10  C   UNL     1      37.594 -22.825 -15.258  0.00  0.00    +0.000 C 
ATOM     11  C   UNL     1      36.908 -21.445 -17.959  0.00  0.00    +0.004 C 
ATOM     12  C   UNL     1      37.340 -23.200 -13.786  0.00  0.00    +0.007 C 
ATOM     13  C   UNL     1      36.670 -21.308 -19.467  0.00  0.00    +0.018 C 
ATOM     14  C   UNL     1      35.208 -20.958 -19.750  0.00  0.00    -0.042 C 
ATOM     15  C   UNL     1      35.584 -25.045 -15.559  0.00  0.00    +0.001 C 
ATOM     16  C   UNL     1      32.735 -21.323 -19.246  0.00  0.00    +0.012 C 
ATOM     17  C   UNL     1      34.222 -23.235 -19.947  0.00  0.00    +0.004 C 
ATOM     18  C   UNL     1      32.432 -20.721 -20.605  0.00  0.00    +0.069 C 
ATOM     19  C   UNL     1      34.858 -19.910 -20.521  0.00  0.00    +0.029 C 
ATOM     20  C   UNL     1      37.724 -20.355 -20.051  0.00  0.00    +0.004 C 
ATOM     21  C   UNL     1      33.455 -19.667 -20.929  0.00  0.00    +0.173 C 
ENDROOT
BRANCH   9  23
ATOM     22  O   UNL     1      34.308 -24.666 -12.308  0.00  0.00    -0.296 OA
ATOM     23  C   UNL     1      35.459 -24.502 -12.708  0.00  0.00    +0.151 C 
ATOM     24  C   UNL     1      36.578 -25.414 -12.283  0.00  0.00    +0.072 C 
ENDBRANCH   9  23
BRANCH   8  25
ATOM     25  O   UNL     1      33.401 -24.322 -17.415  0.00  0.00    -0.384 OA
ATOM     26  H   UNL     1      33.181 -24.981 -16.738  0.00  0.00    +0.210 HD
ENDBRANCH   8  25
TORSDOF 2
ENDMDL
MODEL 4
REMARK VINA RESULT:      -7.6     17.365     19.348
REMARK  Name = 247839
REMARK  2 active torsions:
REMARK  status: ('A' for Active; 'I' for Inactive)
REMARK    1  A    between atoms: C_8  and  O_25
REMARK    2  A    between atoms: C_9  and  C_23
REMARK                            x       y       z     vdW  Elec       q    Type
REMARK                         _______ _______ _______ _____ _____    ______ ____
ROOT
ATOM      1  O   UNL     1      32.237 -13.406 -23.096  0.00  0.00    -0.291 OA
ATOM      2  C   UNL     1      32.567  -6.084 -25.056  0.00  0.00    +0.001 C 
ATOM      3  C   UNL     1      31.617  -5.099 -24.345  0.00  0.00    +0.009 C 
ATOM      4  C   UNL     1      33.113  -7.180 -24.130  0.00  0.00    +0.003 C 
ATOM      5  C   UNL     1      31.912  -8.002 -23.567  0.00  0.00    +0.030 C 
ATOM      6  C   UNL     1      32.368  -9.235 -22.684  0.00  0.00    +0.018 C 
ATOM      7  C   UNL     1      30.406  -5.901 -23.836  0.00  0.00    +0.030 C 
ATOM      8  C   UNL     1      30.810  -7.091 -22.936  0.00  0.00    +0.111 C 
ATOM      9  C   UNL     1      31.303  -4.158 -25.533  0.00  0.00    +0.058 C 
ATOM     10  C   UNL     1      33.541  -5.166 -25.788  0.00  0.00    +0.000 C 
ATOM     11  C   UNL     1      34.077  -8.097 -24.896  0.00  0.00    +0.004 C 
ATOM     12  C   UNL     1      32.657  -3.996 -26.256  0.00  0.00    +0.007 C 
ATOM     13  C   UNL     1      34.592  -9.248 -24.025  0.00  0.00    +0.018 C 
ATOM     14  C   UNL     1      33.424 -10.057 -23.458  0.00  0.00    -0.042 C 
ATOM     15  C   UNL     1      32.285  -4.308 -23.191  0.00  0.00    +0.001 C 
ATOM     16  C   UNL     1      31.105 -10.099 -22.399  0.00  0.00    +0.012 C 
ATOM     17  C   UNL     1      33.004  -8.828 -21.335  0.00  0.00    +0.004 C 
ATOM     18  C   UNL     1      31.424 -11.498 -21.905  0.00  0.00    +0.069 C 
ATOM     19  C   UNL     1      33.349 -11.395 -23.588  0.00  0.00    +0.029 C 
ATOM     20  C   UNL     1      35.645 -10.037 -24.817  0.00  0.00    +0.004 C 
ATOM     21  C   UNL     1      32.308 -12.195 -22.901  0.00  0.00    +0.173 C 
ENDROOT
BRANCH   9  23
ATOM     22  O   UNL     1      29.490  -2.645 -25.208  0.00  0.00    -0.296 OA
ATOM     23  C   UNL     1      30.701  -2.846 -25.138  0.00  0.00    +0.151 C 
ATOM     24  C   UNL     1      31.649  -1.786 -24.648  0.00  0.00    +0.072 C 
ENDBRANCH   9  23
BRANCH   8  25
ATOM     25  O   UNL     1      31.215  -6.601 -21.665  0.00  0.00    -0.384 OA
ATOM     26  H   UNL     1      31.952  -7.136 -21.332  0.00  0.00    +0.210 HD
ENDBRANCH   8  25
TORSDOF 2
ENDMDL
MODEL 5
REMARK VINA RESULT:      -7.5     14.633     17.047
REMARK  Name = 247839
REMARK  2 active torsions:
REMARK  status: ('A' for Active; 'I' for Inactive)
REMARK    1  A    between atoms: C_8  and  O_25
REMARK    2  A    between atoms: C_9  and  C_23
REMARK                            x       y       z     vdW  Elec       q    Type
REMARK                         _______ _______ _______ _____ _____    ______ ____
ROOT
ATOM      1  O   UNL     1      30.727  -4.545 -23.147  0.00  0.00    -0.291 OA
ATOM      2  C   UNL     1      32.345 -11.927 -22.470  0.00  0.00    +0.001 C 
ATOM      3  C   UNL     1      33.216 -12.582 -23.561  0.00  0.00    +0.009 C 
ATOM      4  C   UNL     1      32.774 -10.493 -22.128  0.00  0.00    +0.003 C 
ATOM      5  C   UNL     1      32.660  -9.617 -23.415  0.00  0.00    +0.030 C 
ATOM      6  C   UNL     1      32.972  -8.088 -23.148  0.00  0.00    +0.018 C 
ATOM      7  C   UNL     1      33.063 -11.748 -24.846  0.00  0.00    +0.030 C 
ATOM      8  C   UNL     1      33.399 -10.254 -24.635  0.00  0.00    +0.111 C 
ATOM      9  C   UNL     1      32.536 -13.971 -23.619  0.00  0.00    +0.058 C 
ATOM     10  C   UNL     1      32.309 -12.982 -21.370  0.00  0.00    +0.000 C 
ATOM     11  C   UNL     1      31.887  -9.922 -21.012  0.00  0.00    +0.004 C 
ATOM     12  C   UNL     1      32.246 -14.312 -22.143  0.00  0.00    +0.007 C 
ATOM     13  C   UNL     1      32.237  -8.466 -20.687  0.00  0.00    +0.018 C 
ATOM     14  C   UNL     1      32.140  -7.597 -21.942  0.00  0.00    -0.042 C 
ATOM     15  C   UNL     1      34.709 -12.726 -23.167  0.00  0.00    +0.001 C 
ATOM     16  C   UNL     1      32.585  -7.301 -24.435  0.00  0.00    +0.012 C 
ATOM     17  C   UNL     1      34.458  -7.807 -22.824  0.00  0.00    +0.004 C 
ATOM     18  C   UNL     1      32.456  -5.804 -24.217  0.00  0.00    +0.069 C 
ATOM     19  C   UNL     1      31.415  -6.463 -21.974  0.00  0.00    +0.029 C 
ATOM     20  C   UNL     1      31.402  -8.013 -19.479  0.00  0.00    +0.004 C 
ATOM     21  C   UNL     1      31.451  -5.538 -23.131  0.00  0.00    +0.173 C 
ENDROOT
BRANCH   9  23
ATOM     22  O   UNL     1      34.058 -15.806 -23.676  0.00  0.00    -0.296 OA
ATOM     23  C   UNL     1      33.346 -15.026 -24.306  0.00  0.00    +0.151 C 
ATOM     24  C   UNL     1      33.244 -15.089 -25.806  0.00  0.00    +0.072 C 
ENDBRANCH   9  23
BRANCH   8  25
ATOM     25  O   UNL     1      34.807 -10.102 -24.521  0.00  0.00    -0.384 OA
ATOM     26  H   UNL     1      35.240 -10.949 -24.709  0.00  0.00    +0.210 HD
ENDBRANCH   8  25
TORSDOF 2
ENDMDL
MODEL 6
REMARK VINA RESULT:      -7.4      1.904      6.654
REMARK  Name = 247839
REMARK  2 active torsions:
REMARK  status: ('A' for Active; 'I' for Inactive)
REMARK    1  A    between atoms: C_8  and  O_25
REMARK    2  A    between atoms: C_9  and  C_23
REMARK                            x       y       z     vdW  Elec       q    Type
REMARK                         _______ _______ _______ _____ _____    ______ ____
ROOT
ATOM      1  O   UNL     1      28.140 -21.651 -16.859  0.00  0.00    -0.291 OA
ATOM      2  C   UNL     1      35.241 -23.065 -14.593  0.00  0.00    +0.001 C 
ATOM      3  C   UNL     1      35.441 -23.861 -13.288  0.00  0.00    +0.009 C 
ATOM      4  C   UNL     1      34.050 -23.555 -15.428  0.00  0.00    +0.003 C 
ATOM      5  C   UNL     1      32.749 -23.407 -14.579  0.00  0.00    +0.030 C 
ATOM      6  C   UNL     1      31.439 -23.780 -15.387  0.00  0.00    +0.018 C 
ATOM      7  C   UNL     1      34.180 -23.672 -12.426  0.00  0.00    +0.030 C 
ATOM      8  C   UNL     1      32.882 -24.064 -13.168  0.00  0.00    +0.111 C 
ATOM      9  C   UNL     1      36.696 -23.135 -12.747  0.00  0.00    +0.058 C 
ATOM     10  C   UNL     1      36.635 -23.050 -15.212  0.00  0.00    +0.000 C 
ATOM     11  C   UNL     1      33.937 -22.743 -16.726  0.00  0.00    +0.004 C 
ATOM     12  C   UNL     1      37.570 -22.907 -13.997  0.00  0.00    +0.007 C 
ATOM     13  C   UNL     1      32.717 -23.154 -17.558  0.00  0.00    +0.018 C 
ATOM     14  C   UNL     1      31.435 -23.023 -16.734  0.00  0.00    -0.042 C 
ATOM     15  C   UNL     1      35.740 -25.366 -13.511  0.00  0.00    +0.001 C 
ATOM     16  C   UNL     1      30.218 -23.355 -14.518  0.00  0.00    +0.012 C 
ATOM     17  C   UNL     1      31.318 -25.287 -15.707  0.00  0.00    +0.004 C 
ATOM     18  C   UNL     1      28.915 -23.285 -15.294  0.00  0.00    +0.069 C 
ATOM     19  C   UNL     1      30.366 -22.334 -17.176  0.00  0.00    +0.029 C 
ATOM     20  C   UNL     1      32.748 -22.394 -18.893  0.00  0.00    +0.004 C 
ATOM     21  C   UNL     1      29.072 -22.343 -16.456  0.00  0.00    +0.173 C 
ENDROOT
BRANCH   9  23
ATOM     22  O   UNL     1      36.959 -23.974 -10.530  0.00  0.00    -0.296 OA
ATOM     23  C   UNL     1      37.420 -23.877 -11.666  0.00  0.00    +0.151 C 
ATOM     24  C   UNL     1      38.737 -24.501 -12.038  0.00  0.00    +0.072 C 
ENDBRANCH   9  23
BRANCH   8  25
ATOM     25  O   UNL     1      32.799 -25.480 -13.250  0.00  0.00    -0.384 OA
ATOM     26  H   UNL     1      33.248 -25.876 -12.486  0.00  0.00    +0.210 HD
ENDBRANCH   8  25
TORSDOF 2
ENDMDL
