MODEL 1
REMARK VINA RESULT:      -8.8      0.000      0.000
REMARK  Name = 5746
REMARK  5 active torsions:
REMARK  status: ('A' for Active; 'I' for Inactive)
REMARK    1  A    between atoms: C_6  and  O_22
REMARK    2  A    between atoms: C_9  and  C_24
REMARK    3  A    between atoms: C_15  and  N_19
REMARK    4  A    between atoms: C_24  and  O_25
REMARK    5  A    between atoms: O_25  and  C_28
REMARK                            x       y       z     vdW  Elec       q    Type
REMARK                         _______ _______ _______ _____ _____    ______ ____
ROOT
ATOM      1  O   UNL     1      32.153 -24.643 -12.963  0.00  0.00    -0.286 OA
ATOM      2  O   UNL     1      34.028 -23.001 -17.696  0.00  0.00    -0.286 OA
ATOM      3  N   UNL     1      36.946 -22.856 -12.572  0.00  0.00    +0.388 N 
ATOM      4  N   UNL     1      34.998 -24.739 -13.568  0.00  0.00    -0.290 N 
ATOM      5  C   UNL     1      37.238 -24.099 -13.283  0.00  0.00    -0.036 C 
ATOM      6  C   UNL     1      36.297 -24.707 -14.278  0.00  0.00    +0.141 C 
ATOM      7  C   UNL     1      36.549 -24.109 -11.955  0.00  0.00    -0.057 C 
ATOM      8  C   UNL     1      35.138 -24.595 -12.125  0.00  0.00    +0.070 C 
ATOM      9  C   UNL     1      35.975 -23.962 -15.613  0.00  0.00    +0.111 C 
ATOM     10  C   UNL     1      33.994 -24.274 -14.383  0.00  0.00    +0.088 C 
ATOM     11  C   UNL     1      34.465 -23.848 -15.554  0.00  0.00    +0.042 C 
ATOM     12  C   UNL     1      32.570 -24.229 -14.040  0.00  0.00    +0.206 C 
ATOM     13  C   UNL     1      33.581 -23.338 -16.604  0.00  0.00    +0.206 C 
ATOM     14  C   UNL     1      31.653 -23.663 -15.084  0.00  0.00    +0.034 C 
ATOM     15  C   UNL     1      32.116 -23.249 -16.283  0.00  0.00    +0.080 C 
ATOM     16  C   UNL     1      30.207 -23.618 -14.668  0.00  0.00    +0.036 C 
ATOM     17  H   UNL     1      36.233 -22.223 -12.934  0.00  0.00    -0.084 HD
ATOM     18  H   UNL     1      37.509 -22.061 -12.269  0.00  0.00    -0.084 HD
ENDROOT
BRANCH  15  19
ATOM     19  N   UNL     1      31.362 -22.727 -17.299  0.00  0.00    -0.355 N 
ATOM     20  H   UNL     1      31.578 -21.840 -17.668  0.00  0.00    +0.142 HD
ATOM     21  H   UNL     1      30.604 -23.240 -17.662  0.00  0.00    +0.142 HD
ENDBRANCH  15  19
BRANCH   6  22
ATOM     22  O   UNL     1      36.714 -26.041 -14.567  0.00  0.00    -0.341 OA
ATOM     23  C   UNL     1      38.129 -26.132 -14.649  0.00  0.00    +0.176 C 
ENDBRANCH   6  22
BRANCH   9  24
ATOM     24  C   UNL     1      36.649 -22.605 -15.794  0.00  0.00    +0.218 C 
BRANCH  24  25
ATOM     25  O   UNL     1      37.220 -22.554 -17.090  0.00  0.00    -0.434 OA
BRANCH  25  28
ATOM     26  O   UNL     1      37.312 -20.292 -17.508  0.00  0.00    -0.227 OA
ATOM     27  N   UNL     1      36.260 -21.728 -18.964  0.00  0.00    -0.295 N 
ATOM     28  C   UNL     1      36.963 -21.425 -17.823  0.00  0.00    +0.398 C 
ATOM     29  H   UNL     1      36.013 -22.661 -19.156  0.00  0.00    +0.148 HD
ATOM     30  H   UNL     1      36.005 -21.012 -19.589  0.00  0.00    +0.148 HD
ENDBRANCH  25  28
ENDBRANCH  24  25
ENDBRANCH   9  24
TORSDOF 5
ENDMDL
MODEL 2
REMARK VINA RESULT:      -8.3      2.001      4.222
REMARK  Name = 5746
REMARK  5 active torsions:
REMARK  status: ('A' for Active; 'I' for Inactive)
REMARK    1  A    between atoms: C_6  and  O_22
REMARK    2  A    between atoms: C_9  and  C_24
REMARK    3  A    between atoms: C_15  and  N_19
REMARK    4  A    between atoms: C_24  and  O_25
REMARK    5  A    between atoms: O_25  and  C_28
REMARK                            x       y       z     vdW  Elec       q    Type
REMARK                         _______ _______ _______ _____ _____    ______ ____
ROOT
ATOM      1  O   UNL     1      32.469 -23.025 -18.075  0.00  0.00    -0.286 OA
ATOM      2  O   UNL     1      37.639 -21.918 -17.262  0.00  0.00    -0.286 OA
ATOM      3  N   UNL     1      33.690 -23.278 -13.098  0.00  0.00    +0.388 N 
ATOM      4  N   UNL     1      33.919 -24.180 -15.831  0.00  0.00    -0.290 N 
ATOM      5  C   UNL     1      34.381 -24.484 -13.550  0.00  0.00    -0.036 C 
ATOM      6  C   UNL     1      34.997 -24.607 -14.910  0.00  0.00    +0.141 C 
ATOM      7  C   UNL     1      32.906 -24.317 -13.743  0.00  0.00    -0.057 C 
ATOM      8  C   UNL     1      32.602 -24.202 -15.209  0.00  0.00    +0.070 C 
ATOM      9  C   UNL     1      36.209 -23.704 -15.309  0.00  0.00    +0.111 C 
ATOM     10  C   UNL     1      34.409 -23.305 -16.771  0.00  0.00    +0.088 C 
ATOM     11  C   UNL     1      35.692 -23.016 -16.556  0.00  0.00    +0.042 C 
ATOM     12  C   UNL     1      33.645 -22.732 -17.883  0.00  0.00    +0.206 C 
ATOM     13  C   UNL     1      36.444 -22.129 -17.445  0.00  0.00    +0.206 C 
ATOM     14  C   UNL     1      34.385 -21.783 -18.778  0.00  0.00    +0.034 C 
ATOM     15  C   UNL     1      35.692 -21.499 -18.583  0.00  0.00    +0.080 C 
ATOM     16  C   UNL     1      33.545 -21.206 -19.886  0.00  0.00    +0.036 C 
ATOM     17  H   UNL     1      33.850 -22.394 -13.580  0.00  0.00    -0.084 HD
ATOM     18  H   UNL     1      33.624 -22.788 -12.206  0.00  0.00    -0.084 HD
ENDROOT
BRANCH  15  19
ATOM     19  N   UNL     1      36.453 -20.655 -19.345  0.00  0.00    -0.355 N 
ATOM     20  H   UNL     1      36.908 -20.993 -20.150  0.00  0.00    +0.142 HD
ATOM     21  H   UNL     1      36.546 -19.709 -19.087  0.00  0.00    +0.142 HD
ENDBRANCH  15  19
BRANCH   6  22
ATOM     22  O   UNL     1      35.322 -25.975 -15.159  0.00  0.00    -0.341 OA
ATOM     23  C   UNL     1      36.715 -26.207 -15.022  0.00  0.00    +0.176 C 
ENDBRANCH   6  22
BRANCH   9  24
ATOM     24  C   UNL     1      36.670 -22.708 -14.249  0.00  0.00    +0.218 C 
BRANCH  24  25
ATOM     25  O   UNL     1      37.756 -23.276 -13.538  0.00  0.00    -0.434 OA
BRANCH  25  28
ATOM     26  O   UNL     1      37.288 -22.363 -11.477  0.00  0.00    -0.227 OA
ATOM     27  N   UNL     1      37.959 -24.553 -11.683  0.00  0.00    -0.295 N 
ATOM     28  C   UNL     1      37.637 -23.311 -12.173  0.00  0.00    +0.398 C 
ATOM     29  H   UNL     1      38.230 -25.270 -12.300  0.00  0.00    +0.148 HD
ATOM     30  H   UNL     1      37.918 -24.725 -10.714  0.00  0.00    +0.148 HD
ENDBRANCH  25  28
ENDBRANCH  24  25
ENDBRANCH   9  24
TORSDOF 5
ENDMDL
MODEL 3
REMARK VINA RESULT:      -7.8      1.778      2.426
REMARK  Name = 5746
REMARK  5 active torsions:
REMARK  status: ('A' for Active; 'I' for Inactive)
REMARK    1  A    between atoms: C_6  and  O_22
REMARK    2  A    between atoms: C_9  and  C_24
REMARK    3  A    between atoms: C_15  and  N_19
REMARK    4  A    between atoms: C_24  and  O_25
REMARK    5  A    between atoms: O_25  and  C_28
REMARK                            x       y       z     vdW  Elec       q    Type
REMARK                         _______ _______ _______ _____ _____    ______ ____
ROOT
ATOM      1  O   UNL     1      32.275 -23.967 -12.791  0.00  0.00    -0.286 OA
ATOM      2  O   UNL     1      35.494 -23.565 -17.044  0.00  0.00    -0.286 OA
ATOM      3  N   UNL     1      37.118 -22.998 -11.403  0.00  0.00    +0.388 N 
ATOM      4  N   UNL     1      35.095 -24.665 -12.614  0.00  0.00    -0.290 N 
ATOM      5  C   UNL     1      37.294 -24.381 -11.841  0.00  0.00    -0.036 C 
ATOM      6  C   UNL     1      36.498 -24.988 -12.957  0.00  0.00    +0.141 C 
ATOM      7  C   UNL     1      36.331 -24.029 -10.750  0.00  0.00    -0.057 C 
ATOM      8  C   UNL     1      34.927 -24.286 -11.216  0.00  0.00    +0.070 C 
ATOM      9  C   UNL     1      36.659 -24.454 -14.417  0.00  0.00    +0.111 C 
ATOM     10  C   UNL     1      34.428 -24.188 -13.717  0.00  0.00    +0.088 C 
ATOM     11  C   UNL     1      35.236 -24.072 -14.770  0.00  0.00    +0.042 C 
ATOM     12  C   UNL     1      33.007 -23.835 -13.767  0.00  0.00    +0.206 C 
ATOM     13  C   UNL     1      34.747 -23.615 -16.072  0.00  0.00    +0.206 C 
ATOM     14  C   UNL     1      32.497 -23.319 -15.080  0.00  0.00    +0.034 C 
ATOM     15  C   UNL     1      33.301 -23.216 -16.161  0.00  0.00    +0.080 C 
ATOM     16  C   UNL     1      31.038 -22.948 -15.066  0.00  0.00    +0.036 C 
ATOM     17  H   UNL     1      36.659 -22.328 -12.019  0.00  0.00    -0.084 HD
ATOM     18  H   UNL     1      37.752 -22.271 -11.072  0.00  0.00    -0.084 HD
ENDROOT
BRANCH  15  19
ATOM     19  N   UNL     1      32.930 -22.766 -17.399  0.00  0.00    -0.355 N 
ATOM     20  H   UNL     1      33.455 -22.062 -17.845  0.00  0.00    +0.142 HD
ATOM     21  H   UNL     1      32.138 -23.146 -17.844  0.00  0.00    +0.142 HD
ENDBRANCH  15  19
BRANCH   6  22
ATOM     22  O   UNL     1      36.677 -26.405 -12.947  0.00  0.00    -0.341 OA
ATOM     23  C   UNL     1      37.097 -26.880 -14.217  0.00  0.00    +0.176 C 
ENDBRANCH   6  22
BRANCH   9  24
ATOM     24  C   UNL     1      37.630 -23.291 -14.594  0.00  0.00    +0.218 C 
BRANCH  24  25
ATOM     25  O   UNL     1      38.687 -23.710 -15.441  0.00  0.00    -0.434 OA
BRANCH  25  28
ATOM     26  O   UNL     1      39.965 -24.592 -13.741  0.00  0.00    -0.227 OA
ATOM     27  N   UNL     1      39.978 -25.522 -15.844  0.00  0.00    -0.295 N 
ATOM     28  C   UNL     1      39.576 -24.604 -14.904  0.00  0.00    +0.398 C 
ATOM     29  H   UNL     1      39.624 -25.474 -16.761  0.00  0.00    +0.148 HD
ATOM     30  H   UNL     1      40.619 -26.228 -15.598  0.00  0.00    +0.148 HD
ENDBRANCH  25  28
ENDBRANCH  24  25
ENDBRANCH   9  24
TORSDOF 5
ENDMDL
MODEL 4
REMARK VINA RESULT:      -7.4     13.336     16.520
REMARK  Name = 5746
REMARK  5 active torsions:
REMARK  status: ('A' for Active; 'I' for Inactive)
REMARK    1  A    between atoms: C_6  and  O_22
REMARK    2  A    between atoms: C_9  and  C_24
REMARK    3  A    between atoms: C_15  and  N_19
REMARK    4  A    between atoms: C_24  and  O_25
REMARK    5  A    between atoms: O_25  and  C_28
REMARK                            x       y       z     vdW  Elec       q    Type
REMARK                         _______ _______ _______ _____ _____    ______ ____
ROOT
ATOM      1  O   UNL     1      34.405 -12.344 -24.998  0.00  0.00    -0.286 OA
ATOM      2  O   UNL     1      31.134 -11.983 -20.782  0.00  0.00    -0.286 OA
ATOM      3  N   UNL     1      34.749  -7.753 -22.735  0.00  0.00    +0.388 N 
ATOM      4  N   UNL     1      33.290  -9.785 -24.176  0.00  0.00    -0.290 N 
ATOM      5  C   UNL     1      33.425  -7.598 -23.333  0.00  0.00    -0.036 C 
ATOM      6  C   UNL     1      32.474  -8.744 -23.511  0.00  0.00    +0.141 C 
ATOM      7  C   UNL     1      34.627  -7.883 -24.177  0.00  0.00    -0.057 C 
ATOM      8  C   UNL     1      34.504  -9.253 -24.781  0.00  0.00    +0.070 C 
ATOM      9  C   UNL     1      31.880  -9.474 -22.263  0.00  0.00    +0.111 C 
ATOM     10  C   UNL     1      33.097 -11.005 -23.573  0.00  0.00    +0.088 C 
ATOM     11  C   UNL     1      32.296 -10.909 -22.512  0.00  0.00    +0.042 C 
ATOM     12  C   UNL     1      33.685 -12.274 -24.008  0.00  0.00    +0.206 C 
ATOM     13  C   UNL     1      31.915 -12.083 -21.723  0.00  0.00    +0.206 C 
ATOM     14  C   UNL     1      33.345 -13.481 -23.184  0.00  0.00    +0.034 C 
ATOM     15  C   UNL     1      32.518 -13.401 -22.119  0.00  0.00    +0.080 C 
ATOM     16  C   UNL     1      33.998 -14.751 -23.661  0.00  0.00    +0.036 C 
ATOM     17  H   UNL     1      34.955  -8.576 -22.170  0.00  0.00    -0.084 HD
ATOM     18  H   UNL     1      35.323  -7.177 -22.120  0.00  0.00    -0.084 HD
ENDROOT
BRANCH  15  19
ATOM     19  N   UNL     1      32.144 -14.441 -21.312  0.00  0.00    -0.355 N 
ATOM     20  H   UNL     1      32.779 -15.166 -21.116  0.00  0.00    +0.142 HD
ATOM     21  H   UNL     1      31.238 -14.462 -20.927  0.00  0.00    +0.142 HD
ENDBRANCH  15  19
BRANCH   6  22
ATOM     22  O   UNL     1      31.413  -8.345 -24.378  0.00  0.00    -0.341 OA
ATOM     23  C   UNL     1      30.908  -7.066 -24.021  0.00  0.00    +0.176 C 
ENDBRANCH   6  22
BRANCH   9  24
ATOM     24  C   UNL     1      32.355  -8.962 -20.907  0.00  0.00    +0.218 C 
BRANCH  24  25
ATOM     25  O   UNL     1      31.532  -7.875 -20.521  0.00  0.00    -0.434 OA
BRANCH  25  28
ATOM     26  O   UNL     1      33.029  -6.665 -19.257  0.00  0.00    -0.227 OA
ATOM     27  N   UNL     1      31.752  -5.653 -20.879  0.00  0.00    -0.295 N 
ATOM     28  C   UNL     1      32.179  -6.728 -20.140  0.00  0.00    +0.398 C 
ATOM     29  H   UNL     1      31.066  -5.776 -21.575  0.00  0.00    +0.148 HD
ATOM     30  H   UNL     1      32.132  -4.760 -20.714  0.00  0.00    +0.148 HD
ENDBRANCH  25  28
ENDBRANCH  24  25
ENDBRANCH   9  24
TORSDOF 5
ENDMDL
MODEL 5
REMARK VINA RESULT:      -7.3      1.974      4.999
REMARK  Name = 5746
REMARK  5 active torsions:
REMARK  status: ('A' for Active; 'I' for Inactive)
REMARK    1  A    between atoms: C_6  and  O_22
REMARK    2  A    between atoms: C_9  and  C_24
REMARK    3  A    between atoms: C_15  and  N_19
REMARK    4  A    between atoms: C_24  and  O_25
REMARK    5  A    between atoms: O_25  and  C_28
REMARK                            x       y       z     vdW  Elec       q    Type
REMARK                         _______ _______ _______ _____ _____    ______ ____
ROOT
ATOM      1  O   UNL     1      34.236 -24.920 -12.136  0.00  0.00    -0.286 OA
ATOM      2  O   UNL     1      35.544 -22.357 -16.645  0.00  0.00    -0.286 OA
ATOM      3  N   UNL     1      30.730 -25.661 -15.809  0.00  0.00    +0.388 N 
ATOM      4  N   UNL     1      32.189 -23.973 -13.975  0.00  0.00    -0.290 N 
ATOM      5  C   UNL     1      30.437 -24.261 -15.513  0.00  0.00    -0.036 C 
ATOM      6  C   UNL     1      31.489 -23.283 -15.083  0.00  0.00    +0.141 C 
ATOM      7  C   UNL     1      30.348 -25.313 -14.452  0.00  0.00    -0.057 C 
ATOM      8  C   UNL     1      31.420 -25.082 -13.425  0.00  0.00    +0.070 C 
ATOM      9  C   UNL     1      32.640 -22.886 -16.062  0.00  0.00    +0.111 C 
ATOM     10  C   UNL     1      33.550 -23.865 -14.126  0.00  0.00    +0.088 C 
ATOM     11  C   UNL     1      33.874 -23.243 -15.258  0.00  0.00    +0.042 C 
ATOM     12  C   UNL     1      34.554 -24.366 -13.183  0.00  0.00    +0.206 C 
ATOM     13  C   UNL     1      35.267 -22.979 -15.624  0.00  0.00    +0.206 C 
ATOM     14  C   UNL     1      35.989 -24.148 -13.564  0.00  0.00    +0.034 C 
ATOM     15  C   UNL     1      36.330 -23.500 -14.699  0.00  0.00    +0.080 C 
ATOM     16  C   UNL     1      36.976 -24.705 -12.572  0.00  0.00    +0.036 C 
ATOM     17  H   UNL     1      31.690 -25.946 -16.006  0.00  0.00    -0.084 HD
ATOM     18  H   UNL     1      30.384 -26.331 -16.496  0.00  0.00    -0.084 HD
ENDROOT
BRANCH  15  19
ATOM     19  N   UNL     1      37.604 -23.247 -15.128  0.00  0.00    -0.355 N 
ATOM     20  H   UNL     1      38.368 -23.401 -14.526  0.00  0.00    +0.142 HD
ATOM     21  H   UNL     1      37.758 -22.911 -16.041  0.00  0.00    +0.142 HD
ENDBRANCH  15  19
BRANCH   6  22
ATOM     22  O   UNL     1      30.860 -22.102 -14.586  0.00  0.00    -0.341 OA
ATOM     23  C   UNL     1      29.490 -22.053 -14.956  0.00  0.00    +0.176 C 
ENDBRANCH   6  22
BRANCH   9  24
ATOM     24  C   UNL     1      32.619 -23.573 -17.424  0.00  0.00    +0.218 C 
BRANCH  24  25
ATOM     25  O   UNL     1      32.737 -22.584 -18.431  0.00  0.00    -0.434 OA
BRANCH  25  28
ATOM     26  O   UNL     1      34.199 -23.737 -19.785  0.00  0.00    -0.227 OA
ATOM     27  N   UNL     1      34.424 -21.474 -19.448  0.00  0.00    -0.295 N 
ATOM     28  C   UNL     1      33.819 -22.693 -19.266  0.00  0.00    +0.398 C 
ATOM     29  H   UNL     1      34.065 -20.674 -19.001  0.00  0.00    +0.148 HD
ATOM     30  H   UNL     1      35.218 -21.400 -20.027  0.00  0.00    +0.148 HD
ENDBRANCH  25  28
ENDBRANCH  24  25
ENDBRANCH   9  24
TORSDOF 5
ENDMDL
MODEL 6
REMARK VINA RESULT:      -7.0      9.827     13.165
REMARK  Name = 5746
REMARK  5 active torsions:
REMARK  status: ('A' for Active; 'I' for Inactive)
REMARK    1  A    between atoms: C_6  and  O_22
REMARK    2  A    between atoms: C_9  and  C_24
REMARK    3  A    between atoms: C_15  and  N_19
REMARK    4  A    between atoms: C_24  and  O_25
REMARK    5  A    between atoms: O_25  and  C_28
REMARK                            x       y       z     vdW  Elec       q    Type
REMARK                         _______ _______ _______ _____ _____    ______ ____
ROOT
ATOM      1  O   UNL     1      34.943 -15.925 -20.415  0.00  0.00    -0.286 OA
ATOM      2  O   UNL     1      34.673 -16.812 -25.683  0.00  0.00    -0.286 OA
ATOM      3  N   UNL     1      31.261 -13.107 -22.613  0.00  0.00    +0.388 N 
ATOM      4  N   UNL     1      34.026 -13.854 -22.243  0.00  0.00    -0.290 N 
ATOM      5  C   UNL     1      32.422 -12.398 -23.147  0.00  0.00    -0.036 C 
ATOM      6  C   UNL     1      33.717 -13.082 -23.467  0.00  0.00    +0.141 C 
ATOM      7  C   UNL     1      32.203 -12.527 -21.672  0.00  0.00    -0.057 C 
ATOM      8  C   UNL     1      33.276 -13.395 -21.080  0.00  0.00    +0.070 C 
ATOM      9  C   UNL     1      33.782 -14.147 -24.609  0.00  0.00    +0.111 C 
ATOM     10  C   UNL     1      34.407 -15.134 -22.566  0.00  0.00    +0.088 C 
ATOM     11  C   UNL     1      34.322 -15.359 -23.877  0.00  0.00    +0.042 C 
ATOM     12  C   UNL     1      34.853 -16.157 -21.616  0.00  0.00    +0.206 C 
ATOM     13  C   UNL     1      34.708 -16.642 -24.468  0.00  0.00    +0.206 C 
ATOM     14  C   UNL     1      35.207 -17.494 -22.196  0.00  0.00    +0.034 C 
ATOM     15  C   UNL     1      35.145 -17.727 -23.526  0.00  0.00    +0.080 C 
ATOM     16  C   UNL     1      35.633 -18.512 -21.173  0.00  0.00    +0.036 C 
ATOM     17  H   UNL     1      31.202 -14.121 -22.708  0.00  0.00    -0.084 HD
ATOM     18  H   UNL     1      30.254 -13.028 -22.751  0.00  0.00    -0.084 HD
ENDROOT
BRANCH  15  19
ATOM     19  N   UNL     1      35.452 -18.906 -24.150  0.00  0.00    -0.355 N 
ATOM     20  H   UNL     1      36.356 -19.052 -24.509  0.00  0.00    +0.142 HD
ATOM     21  H   UNL     1      34.767 -19.608 -24.239  0.00  0.00    +0.142 HD
ENDBRANCH  15  19
BRANCH   6  22
ATOM     22  O   UNL     1      34.729 -12.098 -23.677  0.00  0.00    -0.341 OA
ATOM     23  C   UNL     1      34.358 -11.185 -24.700  0.00  0.00    +0.176 C 
ENDBRANCH   6  22
BRANCH   9  24
ATOM     24  C   UNL     1      32.463 -14.441 -25.317  0.00  0.00    +0.218 C 
BRANCH  24  25
ATOM     25  O   UNL     1      32.728 -14.660 -26.692  0.00  0.00    -0.434 OA
BRANCH  25  28
ATOM     26  O   UNL     1      34.250 -13.396 -27.868  0.00  0.00    -0.227 OA
ATOM     27  N   UNL     1      32.085 -12.680 -27.573  0.00  0.00    -0.295 N 
ATOM     28  C   UNL     1      33.123 -13.566 -27.416  0.00  0.00    +0.398 C 
ATOM     29  H   UNL     1      31.204 -12.881 -27.184  0.00  0.00    +0.148 HD
ATOM     30  H   UNL     1      32.224 -11.844 -28.075  0.00  0.00    +0.148 HD
ENDBRANCH  25  28
ENDBRANCH  24  25
ENDBRANCH   9  24
TORSDOF 5
ENDMDL
MODEL 7
REMARK VINA RESULT:      -6.9      1.938      5.552
REMARK  Name = 5746
REMARK  5 active torsions:
REMARK  status: ('A' for Active; 'I' for Inactive)
REMARK    1  A    between atoms: C_6  and  O_22
REMARK    2  A    between atoms: C_9  and  C_24
REMARK    3  A    between atoms: C_15  and  N_19
REMARK    4  A    between atoms: C_24  and  O_25
REMARK    5  A    between atoms: O_25  and  C_28
REMARK                            x       y       z     vdW  Elec       q    Type
REMARK                         _______ _______ _______ _____ _____    ______ ____
ROOT
ATOM      1  O   UNL     1      32.520 -22.080 -18.773  0.00  0.00    -0.286 OA
ATOM      2  O   UNL     1      36.199 -23.805 -15.294  0.00  0.00    -0.286 OA
ATOM      3  N   UNL     1      30.686 -22.168 -13.982  0.00  0.00    +0.388 N 
ATOM      4  N   UNL     1      31.748 -23.466 -16.333  0.00  0.00    -0.290 N 
ATOM      5  C   UNL     1      30.741 -23.610 -14.217  0.00  0.00    -0.036 C 
ATOM      6  C   UNL     1      31.784 -24.254 -15.080  0.00  0.00    +0.141 C 
ATOM      7  C   UNL     1      29.929 -22.711 -15.096  0.00  0.00    -0.057 C 
ATOM      8  C   UNL     1      30.528 -22.681 -16.473  0.00  0.00    +0.070 C 
ATOM      9  C   UNL     1      33.288 -24.216 -14.657  0.00  0.00    +0.111 C 
ATOM     10  C   UNL     1      33.023 -23.148 -16.737  0.00  0.00    +0.088 C 
ATOM     11  C   UNL     1      33.936 -23.562 -15.860  0.00  0.00    +0.042 C 
ATOM     12  C   UNL     1      33.374 -22.438 -17.969  0.00  0.00    +0.206 C 
ATOM     13  C   UNL     1      35.370 -23.369 -16.087  0.00  0.00    +0.206 C 
ATOM     14  C   UNL     1      34.836 -22.186 -18.197  0.00  0.00    +0.034 C 
ATOM     15  C   UNL     1      35.773 -22.620 -17.326  0.00  0.00    +0.080 C 
ATOM     16  C   UNL     1      35.136 -21.431 -19.464  0.00  0.00    +0.036 C 
ATOM     17  H   UNL     1      31.511 -21.595 -14.163  0.00  0.00    -0.084 HD
ATOM     18  H   UNL     1      30.450 -21.587 -13.178  0.00  0.00    -0.084 HD
ENDROOT
BRANCH  15  19
ATOM     19  N   UNL     1      37.125 -22.447 -17.448  0.00  0.00    -0.355 N 
ATOM     20  H   UNL     1      37.715 -23.228 -17.551  0.00  0.00    +0.142 HD
ATOM     21  H   UNL     1      37.508 -21.540 -17.433  0.00  0.00    +0.142 HD
ENDBRANCH  15  19
BRANCH   6  22
ATOM     22  O   UNL     1      31.401 -25.602 -15.354  0.00  0.00    -0.341 OA
ATOM     23  C   UNL     1      30.058 -25.846 -14.964  0.00  0.00    +0.176 C 
ENDBRANCH   6  22
BRANCH   9  24
ATOM     24  C   UNL     1      33.593 -23.472 -13.361  0.00  0.00    +0.218 C 
BRANCH  24  25
ATOM     25  O   UNL     1      34.005 -24.413 -12.385  0.00  0.00    -0.434 OA
BRANCH  25  28
ATOM     26  O   UNL     1      35.866 -25.140 -11.242  0.00  0.00    -0.227 OA
ATOM     27  N   UNL     1      35.901 -23.184 -12.450  0.00  0.00    -0.295 N 
ATOM     28  C   UNL     1      35.305 -24.320 -11.961  0.00  0.00    +0.398 C 
ATOM     29  H   UNL     1      35.391 -22.569 -13.025  0.00  0.00    +0.148 HD
ATOM     30  H   UNL     1      36.840 -22.986 -12.227  0.00  0.00    +0.148 HD
ENDBRANCH  25  28
ENDBRANCH  24  25
ENDBRANCH   9  24
TORSDOF 5
ENDMDL
MODEL 8
REMARK VINA RESULT:      -6.8      7.503     11.051
REMARK  Name = 5746
REMARK  5 active torsions:
REMARK  status: ('A' for Active; 'I' for Inactive)
REMARK    1  A    between atoms: C_6  and  O_22
REMARK    2  A    between atoms: C_9  and  C_24
REMARK    3  A    between atoms: C_15  and  N_19
REMARK    4  A    between atoms: C_24  and  O_25
REMARK    5  A    between atoms: O_25  and  C_28
REMARK                            x       y       z     vdW  Elec       q    Type
REMARK                         _______ _______ _______ _____ _____    ______ ____
ROOT
ATOM      1  O   UNL     1      34.202 -13.960 -24.667  0.00  0.00    -0.286 OA
ATOM      2  O   UNL     1      32.930 -15.579 -19.731  0.00  0.00    -0.286 OA
ATOM      3  N   UNL     1      33.553 -19.045 -24.462  0.00  0.00    +0.388 N 
ATOM      4  N   UNL     1      34.927 -16.615 -23.723  0.00  0.00    -0.290 N 
ATOM      5  C   UNL     1      34.815 -18.960 -23.730  0.00  0.00    -0.036 C 
ATOM      6  C   UNL     1      35.174 -17.793 -22.860  0.00  0.00    +0.141 C 
ATOM      7  C   UNL     1      34.696 -18.451 -25.132  0.00  0.00    -0.057 C 
ATOM      8  C   UNL     1      34.847 -16.956 -25.137  0.00  0.00    +0.070 C 
ATOM      9  C   UNL     1      34.348 -17.492 -21.569  0.00  0.00    +0.111 C 
ATOM     10  C   UNL     1      34.230 -15.653 -23.032  0.00  0.00    +0.088 C 
ATOM     11  C   UNL     1      33.898 -16.065 -21.810  0.00  0.00    +0.042 C 
ATOM     12  C   UNL     1      33.871 -14.327 -23.545  0.00  0.00    +0.206 C 
ATOM     13  C   UNL     1      33.179 -15.201 -20.871  0.00  0.00    +0.206 C 
ATOM     14  C   UNL     1      33.092 -13.445 -22.616  0.00  0.00    +0.034 C 
ATOM     15  C   UNL     1      32.768 -13.843 -21.366  0.00  0.00    +0.080 C 
ATOM     16  C   UNL     1      32.729 -12.107 -23.203  0.00  0.00    +0.036 C 
ATOM     17  H   UNL     1      32.768 -18.456 -24.184  0.00  0.00    -0.084 HD
ATOM     18  H   UNL     1      32.912 -19.805 -24.688  0.00  0.00    -0.084 HD
ENDROOT
BRANCH  15  19
ATOM     19  N   UNL     1      32.069 -13.111 -20.445  0.00  0.00    -0.355 N 
ATOM     20  H   UNL     1      32.260 -12.153 -20.328  0.00  0.00    +0.142 HD
ATOM     21  H   UNL     1      31.372 -13.544 -19.900  0.00  0.00    +0.142 HD
ENDBRANCH  15  19
BRANCH   6  22
ATOM     22  O   UNL     1      36.562 -17.860 -22.532  0.00  0.00    -0.341 OA
ATOM     23  C   UNL     1      36.793 -18.742 -21.445  0.00  0.00    +0.176 C 
ENDBRANCH   6  22
BRANCH   9  24
ATOM     24  C   UNL     1      33.176 -18.429 -21.297  0.00  0.00    +0.218 C 
BRANCH  24  25
ATOM     25  O   UNL     1      33.647 -19.765 -21.336  0.00  0.00    -0.434 OA
BRANCH  25  28
ATOM     26  O   UNL     1      32.462 -20.560 -19.530  0.00  0.00    -0.227 OA
ATOM     27  N   UNL     1      34.660 -21.150 -19.863  0.00  0.00    -0.295 N 
ATOM     28  C   UNL     1      33.496 -20.495 -20.186  0.00  0.00    +0.398 C 
ATOM     29  H   UNL     1      35.454 -21.054 -20.437  0.00  0.00    +0.148 HD
ATOM     30  H   UNL     1      34.698 -21.716 -19.058  0.00  0.00    +0.148 HD
ENDBRANCH  25  28
ENDBRANCH  24  25
ENDBRANCH   9  24
TORSDOF 5
ENDMDL
MODEL 9
REMARK VINA RESULT:      -6.1      8.366     11.183
REMARK  Name = 5746
REMARK  5 active torsions:
REMARK  status: ('A' for Active; 'I' for Inactive)
REMARK    1  A    between atoms: C_6  and  O_22
REMARK    2  A    between atoms: C_9  and  C_24
REMARK    3  A    between atoms: C_15  and  N_19
REMARK    4  A    between atoms: C_24  and  O_25
REMARK    5  A    between atoms: O_25  and  C_28
REMARK                            x       y       z     vdW  Elec       q    Type
REMARK                         _______ _______ _______ _____ _____    ______ ____
ROOT
ATOM      1  O   UNL     1      33.652 -17.573 -25.923  0.00  0.00    -0.286 OA
ATOM      2  O   UNL     1      34.755 -13.579 -22.539  0.00  0.00    -0.286 OA
ATOM      3  N   UNL     1      33.563 -19.159 -21.044  0.00  0.00    +0.388 N 
ATOM      4  N   UNL     1      34.922 -18.085 -23.355  0.00  0.00    -0.290 N 
ATOM      5  C   UNL     1      35.005 -18.972 -21.182  0.00  0.00    -0.036 C 
ATOM      6  C   UNL     1      35.608 -17.912 -22.055  0.00  0.00    +0.141 C 
ATOM      7  C   UNL     1      34.256 -19.910 -22.076  0.00  0.00    -0.057 C 
ATOM      8  C   UNL     1      34.270 -19.383 -23.482  0.00  0.00    +0.070 C 
ATOM      9  C   UNL     1      35.396 -16.401 -21.717  0.00  0.00    +0.111 C 
ATOM     10  C   UNL     1      34.514 -16.870 -23.848  0.00  0.00    +0.088 C 
ATOM     11  C   UNL     1      34.773 -15.879 -22.996  0.00  0.00    +0.042 C 
ATOM     12  C   UNL     1      33.865 -16.649 -25.144  0.00  0.00    +0.206 C 
ATOM     13  C   UNL     1      34.460 -14.484 -23.314  0.00  0.00    +0.206 C 
ATOM     14  C   UNL     1      33.492 -15.233 -25.467  0.00  0.00    +0.034 C 
ATOM     15  C   UNL     1      33.769 -14.217 -24.621  0.00  0.00    +0.080 C 
ATOM     16  C   UNL     1      32.807 -15.069 -26.798  0.00  0.00    +0.036 C 
ATOM     17  H   UNL     1      32.928 -18.405 -21.308  0.00  0.00    -0.084 HD
ATOM     18  H   UNL     1      32.949 -19.413 -20.270  0.00  0.00    -0.084 HD
ENDROOT
BRANCH  15  19
ATOM     19  N   UNL     1      33.477 -12.896 -24.828  0.00  0.00    -0.355 N 
ATOM     20  H   UNL     1      32.543 -12.587 -24.794  0.00  0.00    +0.142 HD
ATOM     21  H   UNL     1      34.202 -12.255 -25.010  0.00  0.00    +0.142 HD
ENDBRANCH  15  19
BRANCH   6  22
ATOM     22  O   UNL     1      37.003 -18.172 -22.215  0.00  0.00    -0.341 OA
ATOM     23  C   UNL     1      37.466 -19.112 -21.257  0.00  0.00    +0.176 C 
ENDBRANCH   6  22
BRANCH   9  24
ATOM     24  C   UNL     1      34.532 -16.110 -20.494  0.00  0.00    +0.218 C 
BRANCH  24  25
ATOM     25  O   UNL     1      33.178 -16.035 -20.905  0.00  0.00    -0.434 OA
BRANCH  25  28
ATOM     26  O   UNL     1      32.026 -15.050 -19.172  0.00  0.00    -0.227 OA
ATOM     27  N   UNL     1      32.170 -14.037 -21.231  0.00  0.00    -0.295 N 
ATOM     28  C   UNL     1      32.424 -15.044 -20.332  0.00  0.00    +0.398 C 
ATOM     29  H   UNL     1      32.522 -14.096 -22.149  0.00  0.00    +0.148 HD
ATOM     30  H   UNL     1      31.638 -13.255 -20.957  0.00  0.00    +0.148 HD
ENDBRANCH  25  28
ENDBRANCH  24  25
ENDBRANCH   9  24
TORSDOF 5
ENDMDL
