MODEL 1
REMARK VINA RESULT:      -6.7      0.000      0.000
REMARK  Name = 5826
REMARK  3 active torsions:
REMARK  status: ('A' for Active; 'I' for Inactive)
REMARK    1  A    between atoms: C_1  and  C_2
REMARK    2  A    between atoms: C_1  and  C_8
REMARK    3  A    between atoms: C_8  and  N_10
REMARK                            x       y       z     vdW  Elec       q    Type
REMARK                         _______ _______ _______ _____ _____    ______ ____
ROOT
ATOM      1  C   UNL     1      35.769 -18.624 -21.824  0.00  0.00    +0.004 C 
ENDROOT
BRANCH   1   2
ATOM      2  C   UNL     1      34.992 -19.619 -20.997  0.00  0.00    -0.024 C 
ATOM      3  C   UNL     1      33.611 -19.516 -20.930  0.00  0.00    -0.004 C 
ATOM      4  C   UNL     1      35.673 -20.617 -20.318  0.00  0.00    -0.004 C 
ATOM      5  C   UNL     1      32.893 -20.435 -20.165  0.00  0.00    -0.000 C 
ATOM      6  C   UNL     1      34.954 -21.537 -19.554  0.00  0.00    -0.000 C 
ATOM      7  C   UNL     1      33.565 -21.446 -19.477  0.00  0.00    -0.000 C 
ENDBRANCH   1   2
BRANCH   1   8
ATOM      8  C   UNL     1      34.962 -18.030 -22.993  0.00  0.00    -0.061 C 
ATOM      9  C   UNL     1      34.892 -18.972 -24.195  0.00  0.00    -0.024 C 
BRANCH   8  10
ATOM     10  N   UNL     1      35.582 -16.775 -23.426  0.00  0.00    +0.382 N 
ATOM     11  H   UNL     1      35.726 -16.798 -24.436  0.00  0.00    -0.089 HD
ATOM     12  H   UNL     1      36.480 -16.659 -22.958  0.00  0.00    -0.089 HD
ATOM     13  H   UNL     1      34.971 -15.994 -23.188  0.00  0.00    -0.089 HD
ENDBRANCH   8  10
ENDBRANCH   1   8
TORSDOF 3
ENDMDL
MODEL 2
REMARK VINA RESULT:      -6.7      0.056      1.529
REMARK  Name = 5826
REMARK  3 active torsions:
REMARK  status: ('A' for Active; 'I' for Inactive)
REMARK    1  A    between atoms: C_1  and  C_2
REMARK    2  A    between atoms: C_1  and  C_8
REMARK    3  A    between atoms: C_8  and  N_10
REMARK                            x       y       z     vdW  Elec       q    Type
REMARK                         _______ _______ _______ _____ _____    ______ ____
ROOT
ATOM      1  C   UNL     1      35.818 -18.623 -21.816  0.00  0.00    +0.004 C 
ENDROOT
BRANCH   1   2
ATOM      2  C   UNL     1      35.042 -19.627 -20.997  0.00  0.00    -0.024 C 
ATOM      3  C   UNL     1      35.723 -20.638 -20.338  0.00  0.00    -0.004 C 
ATOM      4  C   UNL     1      33.663 -19.519 -20.921  0.00  0.00    -0.004 C 
ATOM      5  C   UNL     1      35.007 -21.565 -19.582  0.00  0.00    -0.000 C 
ATOM      6  C   UNL     1      32.946 -20.447 -20.164  0.00  0.00    -0.000 C 
ATOM      7  C   UNL     1      33.618 -21.470 -19.494  0.00  0.00    -0.000 C 
ENDBRANCH   1   2
BRANCH   1   8
ATOM      8  C   UNL     1      35.002 -18.003 -22.965  0.00  0.00    -0.061 C 
ATOM      9  C   UNL     1      34.887 -18.935 -24.171  0.00  0.00    -0.024 C 
BRANCH   8  10
ATOM     10  N   UNL     1      35.642 -16.759 -23.403  0.00  0.00    +0.382 N 
ATOM     11  H   UNL     1      36.406 -16.528 -22.768  0.00  0.00    -0.089 HD
ATOM     12  H   UNL     1      34.957 -16.003 -23.398  0.00  0.00    -0.089 HD
ATOM     13  H   UNL     1      36.009 -16.879 -24.346  0.00  0.00    -0.089 HD
ENDBRANCH   8  10
ENDBRANCH   1   8
TORSDOF 3
ENDMDL
MODEL 3
REMARK VINA RESULT:      -6.6      1.101      1.675
REMARK  Name = 5826
REMARK  3 active torsions:
REMARK  status: ('A' for Active; 'I' for Inactive)
REMARK    1  A    between atoms: C_1  and  C_2
REMARK    2  A    between atoms: C_1  and  C_8
REMARK    3  A    between atoms: C_8  and  N_10
REMARK                            x       y       z     vdW  Elec       q    Type
REMARK                         _______ _______ _______ _____ _____    ______ ____
ROOT
ATOM      1  C   UNL     1      34.275 -18.718 -21.874  0.00  0.00    +0.004 C 
ENDROOT
BRANCH   1   2
ATOM      2  C   UNL     1      34.415 -19.854 -20.888  0.00  0.00    -0.024 C 
ATOM      3  C   UNL     1      33.276 -20.427 -20.346  0.00  0.00    -0.004 C 
ATOM      4  C   UNL     1      35.681 -20.301 -20.545  0.00  0.00    -0.004 C 
ATOM      5  C   UNL     1      33.406 -21.476 -19.436  0.00  0.00    -0.000 C 
ATOM      6  C   UNL     1      35.810 -21.351 -19.634  0.00  0.00    -0.000 C 
ATOM      7  C   UNL     1      34.673 -21.939 -19.080  0.00  0.00    -0.000 C 
ENDBRANCH   1   2
BRANCH   1   8
ATOM      8  C   UNL     1      35.335 -17.615 -21.699  0.00  0.00    -0.061 C 
ATOM      9  C   UNL     1      34.815 -16.427 -20.889  0.00  0.00    -0.024 C 
BRANCH   8  10
ATOM     10  N   UNL     1      35.755 -17.128 -23.015  0.00  0.00    +0.382 N 
ATOM     11  H   UNL     1      35.467 -16.156 -23.125  0.00  0.00    -0.089 HD
ATOM     12  H   UNL     1      35.321 -17.695 -23.743  0.00  0.00    -0.089 HD
ATOM     13  H   UNL     1      36.769 -17.192 -23.093  0.00  0.00    -0.089 HD
ENDBRANCH   8  10
ENDBRANCH   1   8
TORSDOF 3
ENDMDL
MODEL 4
REMARK VINA RESULT:      -6.3      1.226      2.090
REMARK  Name = 5826
REMARK  3 active torsions:
REMARK  status: ('A' for Active; 'I' for Inactive)
REMARK    1  A    between atoms: C_1  and  C_2
REMARK    2  A    between atoms: C_1  and  C_8
REMARK    3  A    between atoms: C_8  and  N_10
REMARK                            x       y       z     vdW  Elec       q    Type
REMARK                         _______ _______ _______ _____ _____    ______ ____
ROOT
ATOM      1  C   UNL     1      35.152 -18.569 -22.134  0.00  0.00    +0.004 C 
ENDROOT
BRANCH   1   2
ATOM      2  C   UNL     1      34.674 -19.614 -21.154  0.00  0.00    -0.024 C 
ATOM      3  C   UNL     1      35.603 -20.409 -20.501  0.00  0.00    -0.004 C 
ATOM      4  C   UNL     1      33.315 -19.758 -20.926  0.00  0.00    -0.004 C 
ATOM      5  C   UNL     1      35.162 -21.373 -19.596  0.00  0.00    -0.000 C 
ATOM      6  C   UNL     1      32.874 -20.724 -20.019  0.00  0.00    -0.000 C 
ATOM      7  C   UNL     1      33.797 -21.531 -19.354  0.00  0.00    -0.000 C 
ENDBRANCH   1   2
BRANCH   1   8
ATOM      8  C   UNL     1      34.560 -17.171 -21.883  0.00  0.00    -0.061 C 
ATOM      9  C   UNL     1      34.950 -16.167 -22.968  0.00  0.00    -0.024 C 
BRANCH   8  10
ATOM     10  N   UNL     1      35.034 -16.663 -20.593  0.00  0.00    +0.382 N 
ATOM     11  H   UNL     1      34.313 -16.076 -20.173  0.00  0.00    -0.089 HD
ATOM     12  H   UNL     1      35.880 -16.111 -20.734  0.00  0.00    -0.089 HD
ATOM     13  H   UNL     1      35.239 -17.446 -19.973  0.00  0.00    -0.089 HD
ENDBRANCH   8  10
ENDBRANCH   1   8
TORSDOF 3
ENDMDL
MODEL 5
REMARK VINA RESULT:      -6.2      1.985      4.658
REMARK  Name = 5826
REMARK  3 active torsions:
REMARK  status: ('A' for Active; 'I' for Inactive)
REMARK    1  A    between atoms: C_1  and  C_2
REMARK    2  A    between atoms: C_1  and  C_8
REMARK    3  A    between atoms: C_8  and  N_10
REMARK                            x       y       z     vdW  Elec       q    Type
REMARK                         _______ _______ _______ _____ _____    ______ ____
ROOT
ATOM      1  C   UNL     1      34.919 -18.505 -21.073  0.00  0.00    +0.004 C 
ENDROOT
BRANCH   1   2
ATOM      2  C   UNL     1      34.818 -18.086 -22.520  0.00  0.00    -0.024 C 
ATOM      3  C   UNL     1      34.629 -19.052 -23.496  0.00  0.00    -0.004 C 
ATOM      4  C   UNL     1      34.915 -16.743 -22.846  0.00  0.00    -0.004 C 
ATOM      5  C   UNL     1      34.536 -18.664 -24.833  0.00  0.00    -0.000 C 
ATOM      6  C   UNL     1      34.821 -16.355 -24.183  0.00  0.00    -0.000 C 
ATOM      7  C   UNL     1      34.632 -17.316 -25.176  0.00  0.00    -0.000 C 
ENDBRANCH   1   2
BRANCH   1   8
ATOM      8  C   UNL     1      34.691 -20.011 -20.850  0.00  0.00    -0.061 C 
ATOM      9  C   UNL     1      33.291 -20.319 -20.318  0.00  0.00    -0.024 C 
BRANCH   8  10
ATOM     10  N   UNL     1      35.672 -20.517 -19.886  0.00  0.00    +0.382 N 
ATOM     11  H   UNL     1      35.988 -19.751 -19.290  0.00  0.00    -0.089 HD
ATOM     12  H   UNL     1      36.469 -20.909 -20.385  0.00  0.00    -0.089 HD
ATOM     13  H   UNL     1      35.241 -21.239 -19.310  0.00  0.00    -0.089 HD
ENDBRANCH   8  10
ENDBRANCH   1   8
TORSDOF 3
ENDMDL
MODEL 6
REMARK VINA RESULT:      -6.2      1.983      4.582
REMARK  Name = 5826
REMARK  3 active torsions:
REMARK  status: ('A' for Active; 'I' for Inactive)
REMARK    1  A    between atoms: C_1  and  C_2
REMARK    2  A    between atoms: C_1  and  C_8
REMARK    3  A    between atoms: C_8  and  N_10
REMARK                            x       y       z     vdW  Elec       q    Type
REMARK                         _______ _______ _______ _____ _____    ______ ____
ROOT
ATOM      1  C   UNL     1      34.942 -18.525 -21.063  0.00  0.00    +0.004 C 
ENDROOT
BRANCH   1   2
ATOM      2  C   UNL     1      34.833 -18.105 -22.510  0.00  0.00    -0.024 C 
ATOM      3  C   UNL     1      34.932 -16.762 -22.837  0.00  0.00    -0.004 C 
ATOM      4  C   UNL     1      34.635 -19.071 -23.483  0.00  0.00    -0.004 C 
ATOM      5  C   UNL     1      34.831 -16.374 -24.172  0.00  0.00    -0.000 C 
ATOM      6  C   UNL     1      34.535 -18.682 -24.820  0.00  0.00    -0.000 C 
ATOM      7  C   UNL     1      34.633 -17.335 -25.165  0.00  0.00    -0.000 C 
ENDBRANCH   1   2
BRANCH   1   8
ATOM      8  C   UNL     1      34.725 -20.032 -20.841  0.00  0.00    -0.061 C 
ATOM      9  C   UNL     1      33.329 -20.350 -20.305  0.00  0.00    -0.024 C 
BRANCH   8  10
ATOM     10  N   UNL     1      35.712 -20.532 -19.879  0.00  0.00    +0.382 N 
ATOM     11  H   UNL     1      35.847 -19.841 -19.141  0.00  0.00    -0.089 HD
ATOM     12  H   UNL     1      36.599 -20.697 -20.356  0.00  0.00    -0.089 HD
ATOM     13  H   UNL     1      35.378 -21.404 -19.472  0.00  0.00    -0.089 HD
ENDBRANCH   8  10
ENDBRANCH   1   8
TORSDOF 3
ENDMDL
MODEL 7
REMARK VINA RESULT:      -5.8      2.517      4.491
REMARK  Name = 5826
REMARK  3 active torsions:
REMARK  status: ('A' for Active; 'I' for Inactive)
REMARK    1  A    between atoms: C_1  and  C_2
REMARK    2  A    between atoms: C_1  and  C_8
REMARK    3  A    between atoms: C_8  and  N_10
REMARK                            x       y       z     vdW  Elec       q    Type
REMARK                         _______ _______ _______ _____ _____    ______ ____
ROOT
ATOM      1  C   UNL     1      33.144 -20.247 -20.999  0.00  0.00    +0.004 C 
ENDROOT
BRANCH   1   2
ATOM      2  C   UNL     1      33.986 -19.151 -21.605  0.00  0.00    -0.024 C 
ATOM      3  C   UNL     1      34.681 -19.397 -22.779  0.00  0.00    -0.004 C 
ATOM      4  C   UNL     1      34.050 -17.918 -20.976  0.00  0.00    -0.004 C 
ATOM      5  C   UNL     1      35.459 -18.384 -23.338  0.00  0.00    -0.000 C 
ATOM      6  C   UNL     1      34.828 -16.904 -21.537  0.00  0.00    -0.000 C 
ATOM      7  C   UNL     1      35.532 -17.137 -22.718  0.00  0.00    -0.000 C 
ENDBRANCH   1   2
BRANCH   1   8
ATOM      8  C   UNL     1      33.728 -20.827 -19.698  0.00  0.00    -0.061 C 
ATOM      9  C   UNL     1      35.186 -21.261 -19.854  0.00  0.00    -0.024 C 
BRANCH   8  10
ATOM     10  N   UNL     1      32.942 -21.992 -19.285  0.00  0.00    +0.382 N 
ATOM     11  H   UNL     1      32.793 -22.604 -20.087  0.00  0.00    -0.089 HD
ATOM     12  H   UNL     1      32.040 -21.683 -18.922  0.00  0.00    -0.089 HD
ATOM     13  H   UNL     1      33.444 -22.501 -18.558  0.00  0.00    -0.089 HD
ENDBRANCH   8  10
ENDBRANCH   1   8
TORSDOF 3
ENDMDL
MODEL 8
REMARK VINA RESULT:      -5.8      3.544      5.666
REMARK  Name = 5826
REMARK  3 active torsions:
REMARK  status: ('A' for Active; 'I' for Inactive)
REMARK    1  A    between atoms: C_1  and  C_2
REMARK    2  A    between atoms: C_1  and  C_8
REMARK    3  A    between atoms: C_8  and  N_10
REMARK                            x       y       z     vdW  Elec       q    Type
REMARK                         _______ _______ _______ _____ _____    ______ ____
ROOT
ATOM      1  C   UNL     1      33.818 -23.062 -18.594  0.00  0.00    +0.004 C 
ENDROOT
BRANCH   1   2
ATOM      2  C   UNL     1      34.113 -21.818 -19.397  0.00  0.00    -0.024 C 
ATOM      3  C   UNL     1      35.429 -21.486 -19.676  0.00  0.00    -0.004 C 
ATOM      4  C   UNL     1      33.062 -21.031 -19.839  0.00  0.00    -0.004 C 
ATOM      5  C   UNL     1      35.701 -20.336 -20.418  0.00  0.00    -0.000 C 
ATOM      6  C   UNL     1      33.335 -19.882 -20.582  0.00  0.00    -0.000 C 
ATOM      7  C   UNL     1      34.654 -19.534 -20.871  0.00  0.00    -0.000 C 
ENDBRANCH   1   2
BRANCH   1   8
ATOM      8  C   UNL     1      33.476 -22.779 -17.120  0.00  0.00    -0.061 C 
ATOM      9  C   UNL     1      34.447 -23.457 -16.153  0.00  0.00    -0.024 C 
BRANCH   8  10
ATOM     10  N   UNL     1      32.123 -23.262 -16.830  0.00  0.00    +0.382 N 
ATOM     11  H   UNL     1      31.760 -23.762 -17.641  0.00  0.00    -0.089 HD
ATOM     12  H   UNL     1      31.516 -22.470 -16.621  0.00  0.00    -0.089 HD
ATOM     13  H   UNL     1      32.151 -23.890 -16.027  0.00  0.00    -0.089 HD
ENDBRANCH   8  10
ENDBRANCH   1   8
TORSDOF 3
ENDMDL
MODEL 9
REMARK VINA RESULT:      -5.7     11.191     13.342
REMARK  Name = 5826
REMARK  3 active torsions:
REMARK  status: ('A' for Active; 'I' for Inactive)
REMARK    1  A    between atoms: C_1  and  C_2
REMARK    2  A    between atoms: C_1  and  C_8
REMARK    3  A    between atoms: C_8  and  N_10
REMARK                            x       y       z     vdW  Elec       q    Type
REMARK                         _______ _______ _______ _____ _____    ______ ____
ROOT
ATOM      1  C   UNL     1      31.878  -7.322 -21.778  0.00  0.00    +0.004 C 
ENDROOT
BRANCH   1   2
ATOM      2  C   UNL     1      32.700  -6.953 -22.989  0.00  0.00    -0.024 C 
ATOM      3  C   UNL     1      33.977  -7.472 -23.128  0.00  0.00    -0.004 C 
ATOM      4  C   UNL     1      32.161  -6.101 -23.940  0.00  0.00    -0.004 C 
ATOM      5  C   UNL     1      34.736  -7.131 -24.247  0.00  0.00    -0.000 C 
ATOM      6  C   UNL     1      32.921  -5.760 -25.061  0.00  0.00    -0.000 C 
ATOM      7  C   UNL     1      34.208  -6.275 -25.214  0.00  0.00    -0.000 C 
ENDBRANCH   1   2
BRANCH   1   8
ATOM      8  C   UNL     1      32.658  -8.135 -20.728  0.00  0.00    -0.061 C 
ATOM      9  C   UNL     1      31.882  -9.359 -20.242  0.00  0.00    -0.024 C 
BRANCH   8  10
ATOM     10  N   UNL     1      32.951  -7.285 -19.571  0.00  0.00    +0.382 N 
ATOM     11  H   UNL     1      32.291  -7.493 -18.821  0.00  0.00    -0.089 HD
ATOM     12  H   UNL     1      32.864  -6.305 -19.837  0.00  0.00    -0.089 HD
ATOM     13  H   UNL     1      33.900  -7.467 -19.247  0.00  0.00    -0.089 HD
ENDBRANCH   8  10
ENDBRANCH   1   8
TORSDOF 3
ENDMDL
