MODEL 1
REMARK VINA RESULT:      -8.9      0.000      0.000
REMARK  Name = 446725
REMARK  5 active torsions:
REMARK  status: ('A' for Active; 'I' for Inactive)
REMARK    1  A    between atoms: N_3  and  C1*_17
REMARK    2  A    between atoms: C_7  and  C_12
REMARK    3  A    between atoms: C3*_18  and  O3*_21
REMARK    4  A    between atoms: C4*_20  and  C5*_23
REMARK    5  A    between atoms: C5*_23  and  O5*_24
REMARK                            x       y       z     vdW  Elec       q    Type
REMARK                         _______ _______ _______ _____ _____    ______ ____
ROOT
ATOM      1  O   UNL     1      33.835 -15.658 -26.258  0.00  0.00    -0.252 OA
ATOM      2  O   UNL     1      35.008 -19.831 -24.727  0.00  0.00    -0.270 OA
ATOM      3  N   UNL     1      34.357 -15.903 -23.998  0.00  0.00    -0.219 N 
ATOM      4  N   UNL     1      34.438 -17.730 -25.480  0.00  0.00    -0.236 N 
ATOM      5  C   UNL     1      34.751 -16.744 -22.976  0.00  0.00    +0.076 C 
ATOM      6  C   UNL     1      34.184 -16.365 -25.309  0.00  0.00    +0.315 C 
ATOM      7  C   UNL     1      34.991 -18.052 -23.145  0.00  0.00    +0.075 C 
ATOM      8  C   UNL     1      34.824 -18.637 -24.504  0.00  0.00    +0.254 C 
ATOM      9  H   UNL     1      34.330 -18.085 -26.392  0.00  0.00    +0.159 HD
ENDROOT
BRANCH   7  12
ATOM     10 BR   UNL     1      35.092 -21.822 -18.881  0.00  0.00    -0.042 Br
ATOM     11  S   UNL     1      34.290 -19.964 -21.339  0.00  0.00    -0.080 S 
ATOM     12  C   UNL     1      35.403 -18.862 -22.043  0.00  0.00    +0.036 C 
ATOM     13  C   UNL     1      36.632 -18.909 -21.411  0.00  0.00    +0.008 C 
ATOM     14  C   UNL     1      36.657 -19.852 -20.343  0.00  0.00    +0.014 C 
ATOM     15  C   UNL     1      35.449 -20.497 -20.194  0.00  0.00    +0.064 C 
ENDBRANCH   7  12
BRANCH   3  17
ATOM     16  O4* UNL     1      34.479 -14.293 -22.305  0.00  0.00    -0.335 OA
ATOM     17  C1* UNL     1      34.133 -14.524 -23.678  0.00  0.00    +0.202 C 
ATOM     18  C3* UNL     1      32.508 -13.063 -22.776  0.00  0.00    +0.144 C 
ATOM     19  C2* UNL     1      32.682 -14.106 -23.855  0.00  0.00    +0.083 C 
ATOM     20  C4* UNL     1      33.415 -13.565 -21.662  0.00  0.00    +0.173 C 
BRANCH  18  21
ATOM     21  O3* UNL     1      32.973 -11.801 -23.248  0.00  0.00    -0.382 OA
ATOM     22  H3* UNL     1      32.682 -11.671 -24.165  0.00  0.00    +0.210 HD
ENDBRANCH  18  21
BRANCH  20  23
ATOM     23  C5* UNL     1      32.708 -14.517 -20.705  0.00  0.00    +0.169 C 
BRANCH  23  24
ATOM     24  O5* UNL     1      33.648 -15.464 -20.223  0.00  0.00    -0.379 OA
ATOM     25  H5* UNL     1      33.301 -15.884 -19.422  0.00  0.00    +0.211 HD
ENDBRANCH  23  24
ENDBRANCH  20  23
ENDBRANCH   3  17
TORSDOF 5
ENDMDL
MODEL 2
REMARK VINA RESULT:      -8.7      3.861      6.235
REMARK  Name = 446725
REMARK  5 active torsions:
REMARK  status: ('A' for Active; 'I' for Inactive)
REMARK    1  A    between atoms: N_3  and  C1*_17
REMARK    2  A    between atoms: C_7  and  C_12
REMARK    3  A    between atoms: C3*_18  and  O3*_21
REMARK    4  A    between atoms: C4*_20  and  C5*_23
REMARK    5  A    between atoms: C5*_23  and  O5*_24
REMARK                            x       y       z     vdW  Elec       q    Type
REMARK                         _______ _______ _______ _____ _____    ______ ____
ROOT
ATOM      1  O   UNL     1      34.874 -18.116 -25.674  0.00  0.00    -0.252 OA
ATOM      2  O   UNL     1      32.585 -14.135 -25.888  0.00  0.00    -0.270 OA
ATOM      3  N   UNL     1      34.611 -16.882 -23.712  0.00  0.00    -0.219 N 
ATOM      4  N   UNL     1      33.721 -16.135 -25.759  0.00  0.00    -0.236 N 
ATOM      5  C   UNL     1      34.099 -15.753 -23.104  0.00  0.00    +0.076 C 
ATOM      6  C   UNL     1      34.440 -17.125 -25.081  0.00  0.00    +0.315 C 
ATOM      7  C   UNL     1      33.413 -14.806 -23.758  0.00  0.00    +0.075 C 
ATOM      8  C   UNL     1      33.189 -14.972 -25.221  0.00  0.00    +0.254 C 
ATOM      9  H   UNL     1      33.580 -16.278 -26.723  0.00  0.00    +0.159 HD
ENDROOT
BRANCH   7  12
ATOM     10 BR   UNL     1      32.155  -9.476 -22.206  0.00  0.00    -0.042 Br
ATOM     11  S   UNL     1      33.232 -12.092 -23.666  0.00  0.00    -0.080 S 
ATOM     12  C   UNL     1      32.906 -13.666 -23.064  0.00  0.00    +0.036 C 
ATOM     13  C   UNL     1      32.144 -13.619 -21.910  0.00  0.00    +0.008 C 
ATOM     14  C   UNL     1      31.830 -12.285 -21.522  0.00  0.00    +0.014 C 
ATOM     15  C   UNL     1      32.359 -11.355 -22.389  0.00  0.00    +0.064 C 
ENDBRANCH   7  12
BRANCH   3  17
ATOM     16  O4* UNL     1      34.649 -19.079 -22.908  0.00  0.00    -0.335 OA
ATOM     17  C1* UNL     1      35.326 -17.815 -22.891  0.00  0.00    +0.202 C 
ATOM     18  C3* UNL     1      35.402 -18.685 -20.694  0.00  0.00    +0.144 C 
ATOM     19  C2* UNL     1      35.421 -17.371 -21.440  0.00  0.00    +0.083 C 
ATOM     20  C4* UNL     1      34.501 -19.557 -21.557  0.00  0.00    +0.173 C 
BRANCH  18  21
ATOM     21  O3* UNL     1      36.717 -19.235 -20.656  0.00  0.00    -0.382 OA
ATOM     22  H3* UNL     1      37.266 -18.809 -21.334  0.00  0.00    +0.210 HD
ENDBRANCH  18  21
BRANCH  20  23
ATOM     23  C5* UNL     1      33.029 -19.445 -21.179  0.00  0.00    +0.169 C 
BRANCH  23  24
ATOM     24  O5* UNL     1      32.694 -20.522 -20.319  0.00  0.00    -0.379 OA
ATOM     25  H5* UNL     1      32.051 -20.219 -19.658  0.00  0.00    +0.211 HD
ENDBRANCH  23  24
ENDBRANCH  20  23
ENDBRANCH   3  17
TORSDOF 5
ENDMDL
MODEL 3
REMARK VINA RESULT:      -8.6      8.910     11.760
REMARK  Name = 446725
REMARK  5 active torsions:
REMARK  status: ('A' for Active; 'I' for Inactive)
REMARK    1  A    between atoms: N_3  and  C1*_17
REMARK    2  A    between atoms: C_7  and  C_12
REMARK    3  A    between atoms: C3*_18  and  O3*_21
REMARK    4  A    between atoms: C4*_20  and  C5*_23
REMARK    5  A    between atoms: C5*_23  and  O5*_24
REMARK                            x       y       z     vdW  Elec       q    Type
REMARK                         _______ _______ _______ _____ _____    ______ ____
ROOT
ATOM      1  O   UNL     1      37.869 -22.110 -16.712  0.00  0.00    -0.252 OA
ATOM      2  O   UNL     1      33.487 -22.732 -17.956  0.00  0.00    -0.270 OA
ATOM      3  N   UNL     1      36.379 -22.961 -15.133  0.00  0.00    -0.219 N 
ATOM      4  N   UNL     1      35.682 -22.442 -17.320  0.00  0.00    -0.236 N 
ATOM      5  C   UNL     1      35.090 -23.363 -14.842  0.00  0.00    +0.076 C 
ATOM      6  C   UNL     1      36.735 -22.480 -16.399  0.00  0.00    +0.315 C 
ATOM      7  C   UNL     1      34.085 -23.322 -15.728  0.00  0.00    +0.075 C 
ATOM      8  C   UNL     1      34.365 -22.815 -17.100  0.00  0.00    +0.254 C 
ATOM      9  H   UNL     1      35.901 -22.112 -18.222  0.00  0.00    +0.159 HD
ENDROOT
BRANCH   7  12
ATOM     10 BR   UNL     1      28.455 -24.145 -15.552  0.00  0.00    -0.042 Br
ATOM     11  S   UNL     1      31.419 -23.235 -16.272  0.00  0.00    -0.080 S 
ATOM     12  C   UNL     1      32.776 -23.761 -15.361  0.00  0.00    +0.036 C 
ATOM     13  C   UNL     1      32.398 -24.595 -14.325  0.00  0.00    +0.008 C 
ATOM     14  C   UNL     1      30.989 -24.801 -14.281  0.00  0.00    +0.014 C 
ATOM     15  C   UNL     1      30.335 -24.119 -15.283  0.00  0.00    +0.064 C 
ENDBRANCH   7  12
BRANCH   3  17
ATOM     16  O4* UNL     1      38.167 -24.222 -14.304  0.00  0.00    -0.335 OA
ATOM     17  C1* UNL     1      37.358 -23.058 -14.090  0.00  0.00    +0.202 C 
ATOM     18  C3* UNL     1      37.737 -24.052 -11.979  0.00  0.00    +0.144 C 
ATOM     19  C2* UNL     1      36.735 -23.187 -12.708  0.00  0.00    +0.083 C 
ATOM     20  C4* UNL     1      38.264 -24.967 -13.075  0.00  0.00    +0.173 C 
BRANCH  18  21
ATOM     21  O3* UNL     1      38.795 -23.241 -11.473  0.00  0.00    -0.382 OA
ATOM     22  H3* UNL     1      39.640 -23.704 -11.586  0.00  0.00    +0.210 HD
ENDBRANCH  18  21
BRANCH  20  23
ATOM     23  C5* UNL     1      37.441 -26.240 -13.232  0.00  0.00    +0.169 C 
BRANCH  23  24
ATOM     24  O5* UNL     1      36.846 -26.557 -11.985  0.00  0.00    -0.379 OA
ATOM     25  H5* UNL     1      37.409 -27.188 -11.509  0.00  0.00    +0.211 HD
ENDBRANCH  23  24
ENDBRANCH  20  23
ENDBRANCH   3  17
TORSDOF 5
ENDMDL
MODEL 4
REMARK VINA RESULT:      -8.4      4.498      6.747
REMARK  Name = 446725
REMARK  5 active torsions:
REMARK  status: ('A' for Active; 'I' for Inactive)
REMARK    1  A    between atoms: N_3  and  C1*_17
REMARK    2  A    between atoms: C_7  and  C_12
REMARK    3  A    between atoms: C3*_18  and  O3*_21
REMARK    4  A    between atoms: C4*_20  and  C5*_23
REMARK    5  A    between atoms: C5*_23  and  O5*_24
REMARK                            x       y       z     vdW  Elec       q    Type
REMARK                         _______ _______ _______ _____ _____    ______ ____
ROOT
ATOM      1  O   UNL     1      33.213 -16.548 -26.086  0.00  0.00    -0.252 OA
ATOM      2  O   UNL     1      33.418 -12.101 -27.232  0.00  0.00    -0.270 OA
ATOM      3  N   UNL     1      33.647 -14.990 -24.406  0.00  0.00    -0.219 N 
ATOM      4  N   UNL     1      33.303 -14.324 -26.637  0.00  0.00    -0.236 N 
ATOM      5  C   UNL     1      33.820 -13.664 -24.061  0.00  0.00    +0.076 C 
ATOM      6  C   UNL     1      33.377 -15.381 -25.723  0.00  0.00    +0.315 C 
ATOM      7  C   UNL     1      33.751 -12.655 -24.940  0.00  0.00    +0.075 C 
ATOM      8  C   UNL     1      33.476 -12.974 -26.369  0.00  0.00    +0.254 C 
ATOM      9  H   UNL     1      33.110 -14.565 -27.572  0.00  0.00    +0.159 HD
ENDROOT
BRANCH   7  12
ATOM     10 BR   UNL     1      33.134  -7.618 -22.360  0.00  0.00    -0.042 Br
ATOM     11  S   UNL     1      32.832 -10.617 -23.388  0.00  0.00    -0.080 S 
ATOM     12  C   UNL     1      33.932 -11.305 -24.512  0.00  0.00    +0.036 C 
ATOM     13  C   UNL     1      34.914 -10.402 -24.878  0.00  0.00    +0.008 C 
ATOM     14  C   UNL     1      34.760  -9.141 -24.232  0.00  0.00    +0.014 C 
ATOM     15  C   UNL     1      33.667  -9.120 -23.394  0.00  0.00    +0.064 C 
ENDBRANCH   7  12
BRANCH   3  17
ATOM     16  O4* UNL     1      32.834 -15.636 -22.309  0.00  0.00    -0.335 OA
ATOM     17  C1* UNL     1      33.748 -15.969 -23.363  0.00  0.00    +0.202 C 
ATOM     18  C3* UNL     1      34.847 -16.398 -21.314  0.00  0.00    +0.144 C 
ATOM     19  C2* UNL     1      35.139 -16.036 -22.752  0.00  0.00    +0.083 C 
ATOM     20  C4* UNL     1      33.522 -15.698 -21.045  0.00  0.00    +0.173 C 
BRANCH  18  21
ATOM     21  O3* UNL     1      34.682 -17.810 -21.198  0.00  0.00    -0.382 OA
ATOM     22  H3* UNL     1      35.512 -18.253 -21.432  0.00  0.00    +0.210 HD
ENDBRANCH  18  21
BRANCH  20  23
ATOM     23  C5* UNL     1      33.698 -14.272 -20.537  0.00  0.00    +0.169 C 
BRANCH  23  24
ATOM     24  O5* UNL     1      32.511 -13.542 -20.804  0.00  0.00    -0.379 OA
ATOM     25  H5* UNL     1      32.033 -13.960 -21.536  0.00  0.00    +0.211 HD
ENDBRANCH  23  24
ENDBRANCH  20  23
ENDBRANCH   3  17
TORSDOF 5
ENDMDL
MODEL 5
REMARK VINA RESULT:      -8.4      7.977     11.147
REMARK  Name = 446725
REMARK  5 active torsions:
REMARK  status: ('A' for Active; 'I' for Inactive)
REMARK    1  A    between atoms: N_3  and  C1*_17
REMARK    2  A    between atoms: C_7  and  C_12
REMARK    3  A    between atoms: C3*_18  and  O3*_21
REMARK    4  A    between atoms: C4*_20  and  C5*_23
REMARK    5  A    between atoms: C5*_23  and  O5*_24
REMARK                            x       y       z     vdW  Elec       q    Type
REMARK                         _______ _______ _______ _____ _____    ______ ____
ROOT
ATOM      1  O   UNL     1      34.543 -24.582 -13.945  0.00  0.00    -0.252 OA
ATOM      2  O   UNL     1      33.091 -23.227 -18.091  0.00  0.00    -0.270 OA
ATOM      3  N   UNL     1      35.937 -23.208 -15.213  0.00  0.00    -0.219 N 
ATOM      4  N   UNL     1      33.828 -23.884 -16.010  0.00  0.00    -0.236 N 
ATOM      5  C   UNL     1      36.128 -22.502 -16.384  0.00  0.00    +0.076 C 
ATOM      6  C   UNL     1      34.765 -23.936 -14.972  0.00  0.00    +0.315 C 
ATOM      7  C   UNL     1      35.228 -22.457 -17.376  0.00  0.00    +0.075 C 
ATOM      8  C   UNL     1      33.952 -23.209 -17.215  0.00  0.00    +0.254 C 
ATOM      9  H   UNL     1      32.990 -24.382 -15.869  0.00  0.00    +0.159 HD
ENDROOT
BRANCH   7  12
ATOM     10 BR   UNL     1      34.630 -19.450 -22.173  0.00  0.00    -0.042 Br
ATOM     11  S   UNL     1      34.176 -21.146 -19.517  0.00  0.00    -0.080 S 
ATOM     12  C   UNL     1      35.488 -21.699 -18.559  0.00  0.00    +0.036 C 
ATOM     13  C   UNL     1      36.704 -21.312 -19.093  0.00  0.00    +0.008 C 
ATOM     14  C   UNL     1      36.554 -20.560 -20.293  0.00  0.00    +0.014 C 
ATOM     15  C   UNL     1      35.231 -20.395 -20.639  0.00  0.00    +0.064 C 
ENDBRANCH   7  12
BRANCH   3  17
ATOM     16  O4* UNL     1      37.865 -24.284 -14.438  0.00  0.00    -0.335 OA
ATOM     17  C1* UNL     1      36.984 -23.171 -14.234  0.00  0.00    +0.202 C 
ATOM     18  C3* UNL     1      37.569 -24.008 -12.102  0.00  0.00    +0.144 C 
ATOM     19  C2* UNL     1      36.461 -23.262 -12.809  0.00  0.00    +0.083 C 
ATOM     20  C4* UNL     1      38.095 -24.946 -13.179  0.00  0.00    +0.173 C 
BRANCH  18  21
ATOM     21  O3* UNL     1      38.592 -23.094 -11.713  0.00  0.00    -0.382 OA
ATOM     22  H3* UNL     1      39.160 -22.900 -12.475  0.00  0.00    +0.210 HD
ENDBRANCH  18  21
BRANCH  20  23
ATOM     23  C5* UNL     1      37.363 -26.282 -13.212  0.00  0.00    +0.169 C 
BRANCH  23  24
ATOM     24  O5* UNL     1      36.809 -26.532 -11.931  0.00  0.00    -0.379 OA
ATOM     25  H5* UNL     1      36.868 -27.479 -11.732  0.00  0.00    +0.211 HD
ENDBRANCH  23  24
ENDBRANCH  20  23
ENDBRANCH   3  17
TORSDOF 5
ENDMDL
MODEL 6
REMARK VINA RESULT:      -8.2      7.975     11.357
REMARK  Name = 446725
REMARK  5 active torsions:
REMARK  status: ('A' for Active; 'I' for Inactive)
REMARK    1  A    between atoms: N_3  and  C1*_17
REMARK    2  A    between atoms: C_7  and  C_12
REMARK    3  A    between atoms: C3*_18  and  O3*_21
REMARK    4  A    between atoms: C4*_20  and  C5*_23
REMARK    5  A    between atoms: C5*_23  and  O5*_24
REMARK                            x       y       z     vdW  Elec       q    Type
REMARK                         _______ _______ _______ _____ _____    ______ ____
ROOT
ATOM      1  O   UNL     1      32.470 -25.132 -13.380  0.00  0.00    -0.252 OA
ATOM      2  O   UNL     1      31.181 -22.647 -17.027  0.00  0.00    -0.270 OA
ATOM      3  N   UNL     1      34.118 -24.394 -14.856  0.00  0.00    -0.219 N 
ATOM      4  N   UNL     1      31.847 -23.878 -15.196  0.00  0.00    -0.236 N 
ATOM      5  C   UNL     1      34.426 -23.691 -16.004  0.00  0.00    +0.076 C 
ATOM      6  C   UNL     1      32.800 -24.518 -14.397  0.00  0.00    +0.315 C 
ATOM      7  C   UNL     1      33.509 -23.082 -16.768  0.00  0.00    +0.075 C 
ATOM      8  C   UNL     1      32.077 -23.166 -16.364  0.00  0.00    +0.254 C 
ATOM      9  H   UNL     1      30.911 -23.942 -14.898  0.00  0.00    +0.159 HD
ENDROOT
BRANCH   7  12
ATOM     10 BR   UNL     1      36.532 -20.312 -20.716  0.00  0.00    -0.042 Br
ATOM     11  S   UNL     1      35.542 -21.912 -18.148  0.00  0.00    -0.080 S 
ATOM     12  C   UNL     1      33.899 -22.365 -17.940  0.00  0.00    +0.036 C 
ATOM     13  C   UNL     1      33.120 -21.949 -19.004  0.00  0.00    +0.008 C 
ATOM     14  C   UNL     1      33.877 -21.256 -19.992  0.00  0.00    +0.014 C 
ATOM     15  C   UNL     1      35.208 -21.164 -19.653  0.00  0.00    +0.064 C 
ENDBRANCH   7  12
BRANCH   3  17
ATOM     16  O4* UNL     1      36.100 -23.977 -13.686  0.00  0.00    -0.335 OA
ATOM     17  C1* UNL     1      35.199 -24.999 -14.134  0.00  0.00    +0.202 C 
ATOM     18  C3* UNL     1      37.397 -25.821 -14.419  0.00  0.00    +0.144 C 
ATOM     19  C2* UNL     1      36.003 -25.971 -14.984  0.00  0.00    +0.083 C 
ATOM     20  C4* UNL     1      37.451 -24.354 -14.017  0.00  0.00    +0.173 C 
BRANCH  18  21
ATOM     21  O3* UNL     1      37.539 -26.646 -13.265  0.00  0.00    -0.382 OA
ATOM     22  H3* UNL     1      38.030 -26.164 -12.581  0.00  0.00    +0.210 HD
ENDBRANCH  18  21
BRANCH  20  23
ATOM     23  C5* UNL     1      37.926 -23.447 -15.146  0.00  0.00    +0.169 C 
BRANCH  23  24
ATOM     24  O5* UNL     1      39.108 -23.996 -15.706  0.00  0.00    -0.379 OA
ATOM     25  H5* UNL     1      38.960 -24.190 -16.645  0.00  0.00    +0.211 HD
ENDBRANCH  23  24
ENDBRANCH  20  23
ENDBRANCH   3  17
TORSDOF 5
ENDMDL
MODEL 7
REMARK VINA RESULT:      -8.1      8.812     12.192
REMARK  Name = 446725
REMARK  5 active torsions:
REMARK  status: ('A' for Active; 'I' for Inactive)
REMARK    1  A    between atoms: N_3  and  C1*_17
REMARK    2  A    between atoms: C_7  and  C_12
REMARK    3  A    between atoms: C3*_18  and  O3*_21
REMARK    4  A    between atoms: C4*_20  and  C5*_23
REMARK    5  A    between atoms: C5*_23  and  O5*_24
REMARK                            x       y       z     vdW  Elec       q    Type
REMARK                         _______ _______ _______ _____ _____    ______ ____
ROOT
ATOM      1  O   UNL     1      34.398 -24.945 -11.975  0.00  0.00    -0.252 OA
ATOM      2  O   UNL     1      32.131 -22.653 -15.252  0.00  0.00    -0.270 OA
ATOM      3  N   UNL     1      35.460 -24.601 -14.023  0.00  0.00    -0.219 N 
ATOM      4  N   UNL     1      33.288 -23.789 -13.616  0.00  0.00    -0.236 N 
ATOM      5  C   UNL     1      35.398 -24.062 -15.293  0.00  0.00    +0.076 C 
ATOM      6  C   UNL     1      34.396 -24.485 -13.119  0.00  0.00    +0.315 C 
ATOM      7  C   UNL     1      34.333 -23.399 -15.765  0.00  0.00    +0.075 C 
ATOM      8  C   UNL     1      33.148 -23.232 -14.879  0.00  0.00    +0.254 C 
ATOM      9  H   UNL     1      32.524 -23.686 -13.003  0.00  0.00    +0.159 HD
ENDROOT
BRANCH   7  12
ATOM     10 BR   UNL     1      35.852 -20.758 -20.574  0.00  0.00    -0.042 Br
ATOM     11  S   UNL     1      35.719 -22.002 -17.646  0.00  0.00    -0.080 S 
ATOM     12  C   UNL     1      34.341 -22.861 -17.088  0.00  0.00    +0.036 C 
ATOM     13  C   UNL     1      33.356 -22.924 -18.057  0.00  0.00    +0.008 C 
ATOM     14  C   UNL     1      33.736 -22.262 -19.260  0.00  0.00    +0.014 C 
ATOM     15  C   UNL     1      34.998 -21.717 -19.174  0.00  0.00    +0.064 C 
ENDBRANCH   7  12
BRANCH   3  17
ATOM     16  O4* UNL     1      36.965 -24.997 -12.276  0.00  0.00    -0.335 OA
ATOM     17  C1* UNL     1      36.661 -25.287 -13.648  0.00  0.00    +0.202 C 
ATOM     18  C3* UNL     1      39.001 -24.991 -13.490  0.00  0.00    +0.144 C 
ATOM     19  C2* UNL     1      37.864 -24.864 -14.477  0.00  0.00    +0.083 C 
ATOM     20  C4* UNL     1      38.351 -24.620 -12.165  0.00  0.00    +0.173 C 
BRANCH  18  21
ATOM     21  O3* UNL     1      39.452 -26.343 -13.447  0.00  0.00    -0.382 OA
ATOM     22  H3* UNL     1      39.494 -26.699 -14.349  0.00  0.00    +0.210 HD
ENDBRANCH  18  21
BRANCH  20  23
ATOM     23  C5* UNL     1      38.408 -23.125 -11.874  0.00  0.00    +0.169 C 
BRANCH  23  24
ATOM     24  O5* UNL     1      37.344 -22.789 -10.999  0.00  0.00    -0.379 OA
ATOM     25  H5* UNL     1      37.574 -23.052 -10.094  0.00  0.00    +0.211 HD
ENDBRANCH  23  24
ENDBRANCH  20  23
ENDBRANCH   3  17
TORSDOF 5
ENDMDL
MODEL 8
REMARK VINA RESULT:      -8.0      6.259      9.242
REMARK  Name = 446725
REMARK  5 active torsions:
REMARK  status: ('A' for Active; 'I' for Inactive)
REMARK    1  A    between atoms: N_3  and  C1*_17
REMARK    2  A    between atoms: C_7  and  C_12
REMARK    3  A    between atoms: C3*_18  and  O3*_21
REMARK    4  A    between atoms: C4*_20  and  C5*_23
REMARK    5  A    between atoms: C5*_23  and  O5*_24
REMARK                            x       y       z     vdW  Elec       q    Type
REMARK                         _______ _______ _______ _____ _____    ______ ____
ROOT
ATOM      1  O   UNL     1      31.441 -12.496 -20.345  0.00  0.00    -0.252 OA
ATOM      2  O   UNL     1      31.870  -7.936 -20.742  0.00  0.00    -0.270 OA
ATOM      3  N   UNL     1      32.279 -11.632 -22.342  0.00  0.00    -0.219 N 
ATOM      4  N   UNL     1      31.676 -10.224 -20.555  0.00  0.00    -0.236 N 
ATOM      5  C   UNL     1      32.641 -10.515 -23.069  0.00  0.00    +0.076 C 
ATOM      6  C   UNL     1      31.777 -11.533 -21.038  0.00  0.00    +0.315 C 
ATOM      7  C   UNL     1      32.540  -9.263 -22.603  0.00  0.00    +0.075 C 
ATOM      8  C   UNL     1      32.007  -9.057 -21.227  0.00  0.00    +0.254 C 
ATOM      9  H   UNL     1      31.331 -10.121 -19.638  0.00  0.00    +0.159 HD
ENDROOT
BRANCH   7  12
ATOM     10 BR   UNL     1      32.520  -4.572 -25.828  0.00  0.00    -0.042 Br
ATOM     11  S   UNL     1      31.751  -7.079 -24.023  0.00  0.00    -0.080 S 
ATOM     12  C   UNL     1      32.940  -8.153 -23.408  0.00  0.00    +0.036 C 
ATOM     13  C   UNL     1      34.213  -7.776 -23.797  0.00  0.00    +0.008 C 
ATOM     14  C   UNL     1      34.208  -6.602 -24.604  0.00  0.00    +0.014 C 
ATOM     15  C   UNL     1      32.934  -6.119 -24.806  0.00  0.00    +0.064 C 
ENDBRANCH   7  12
BRANCH   3  17
ATOM     16  O4* UNL     1      32.352 -13.940 -21.968  0.00  0.00    -0.335 OA
ATOM     17  C1* UNL     1      32.439 -12.913 -22.965  0.00  0.00    +0.202 C 
ATOM     18  C3* UNL     1      34.074 -14.540 -23.482  0.00  0.00    +0.144 C 
ATOM     19  C2* UNL     1      33.784 -13.067 -23.657  0.00  0.00    +0.083 C 
ATOM     20  C4* UNL     1      33.452 -14.855 -22.129  0.00  0.00    +0.173 C 
BRANCH  18  21
ATOM     21  O3* UNL     1      33.415 -15.285 -24.504  0.00  0.00    -0.382 OA
ATOM     22  H3* UNL     1      33.300 -14.726 -25.289  0.00  0.00    +0.210 HD
ENDBRANCH  18  21
BRANCH  20  23
ATOM     23  C5* UNL     1      34.416 -14.637 -20.969  0.00  0.00    +0.169 C 
BRANCH  23  24
ATOM     24  O5* UNL     1      34.830 -15.900 -20.474  0.00  0.00    -0.379 OA
ATOM     25  H5* UNL     1      35.797 -15.924 -20.418  0.00  0.00    +0.211 HD
ENDBRANCH  23  24
ENDBRANCH  20  23
ENDBRANCH   3  17
TORSDOF 5
ENDMDL
MODEL 9
REMARK VINA RESULT:      -7.7      4.320      6.958
REMARK  Name = 446725
REMARK  5 active torsions:
REMARK  status: ('A' for Active; 'I' for Inactive)
REMARK    1  A    between atoms: N_3  and  C1*_17
REMARK    2  A    between atoms: C_7  and  C_12
REMARK    3  A    between atoms: C3*_18  and  O3*_21
REMARK    4  A    between atoms: C4*_20  and  C5*_23
REMARK    5  A    between atoms: C5*_23  and  O5*_24
REMARK                            x       y       z     vdW  Elec       q    Type
REMARK                         _______ _______ _______ _____ _____    ______ ____
ROOT
ATOM      1  O   UNL     1      34.209 -17.217 -25.398  0.00  0.00    -0.252 OA
ATOM      2  O   UNL     1      32.714 -13.021 -26.534  0.00  0.00    -0.270 OA
ATOM      3  N   UNL     1      34.467 -15.492 -23.850  0.00  0.00    -0.219 N 
ATOM      4  N   UNL     1      33.454 -15.120 -25.941  0.00  0.00    -0.236 N 
ATOM      5  C   UNL     1      34.272 -14.159 -23.544  0.00  0.00    +0.076 C 
ATOM      6  C   UNL     1      34.061 -16.036 -25.074  0.00  0.00    +0.315 C 
ATOM      7  C   UNL     1      33.693 -13.285 -24.379  0.00  0.00    +0.075 C 
ATOM      8  C   UNL     1      33.235 -13.770 -25.711  0.00  0.00    +0.254 C 
ATOM      9  H   UNL     1      33.152 -15.473 -26.810  0.00  0.00    +0.159 HD
ENDROOT
BRANCH   7  12
ATOM     10 BR   UNL     1      34.278  -7.649 -23.835  0.00  0.00    -0.042 Br
ATOM     11  S   UNL     1      34.573 -10.721 -24.618  0.00  0.00    -0.080 S 
ATOM     12  C   UNL     1      33.516 -11.921 -23.995  0.00  0.00    +0.036 C 
ATOM     13  C   UNL     1      32.570 -11.373 -23.148  0.00  0.00    +0.008 C 
ATOM     14  C   UNL     1      32.717  -9.963 -23.012  0.00  0.00    +0.014 C 
ATOM     15  C   UNL     1      33.768  -9.477 -23.758  0.00  0.00    +0.064 C 
ENDBRANCH   7  12
BRANCH   3  17
ATOM     16  O4* UNL     1      35.676 -17.465 -23.501  0.00  0.00    -0.335 OA
ATOM     17  C1* UNL     1      35.101 -16.316 -22.862  0.00  0.00    +0.202 C 
ATOM     18  C3* UNL     1      34.705 -18.176 -21.458  0.00  0.00    +0.144 C 
ATOM     19  C2* UNL     1      34.131 -16.822 -21.807  0.00  0.00    +0.083 C 
ATOM     20  C4* UNL     1      35.294 -18.651 -22.779  0.00  0.00    +0.173 C 
BRANCH  18  21
ATOM     21  O3* UNL     1      35.742 -18.023 -20.492  0.00  0.00    -0.382 OA
ATOM     22  H3* UNL     1      36.432 -18.687 -20.648  0.00  0.00    +0.210 HD
ENDBRANCH  18  21
BRANCH  20  23
ATOM     23  C5* UNL     1      34.292 -19.417 -23.634  0.00  0.00    +0.169 C 
BRANCH  23  24
ATOM     24  O5* UNL     1      34.952 -19.899 -24.792  0.00  0.00    -0.379 OA
ATOM     25  H5* UNL     1      35.061 -19.174 -25.428  0.00  0.00    +0.211 HD
ENDBRANCH  23  24
ENDBRANCH  20  23
ENDBRANCH   3  17
TORSDOF 5
ENDMDL
