MODEL 1
REMARK VINA RESULT:      -8.5      0.000      0.000
REMARK  Name = 72287
REMARK  5 active torsions:
REMARK  status: ('A' for Active; 'I' for Inactive)
REMARK    1  A    between atoms: N_2  and  C_17
REMARK    2  A    between atoms: C_11  and  O_15
REMARK    3  A    between atoms: C_17  and  C_18
REMARK    4  A    between atoms: C_18  and  C_20
REMARK    5  A    between atoms: C_20  and  N_21
REMARK                            x       y       z     vdW  Elec       q    Type
REMARK                         _______ _______ _______ _____ _____    ______ ____
ROOT
ATOM      1  S   UNL     1      37.471 -22.928 -15.693  0.00  0.00    -0.084 S 
ATOM      2  N   UNL     1      34.496 -23.696 -15.220  0.00  0.00    -0.286 N 
ATOM      3  C   UNL     1      34.777 -23.055 -16.453  0.00  0.00    +0.061 C 
ATOM      4  C   UNL     1      35.302 -23.615 -14.056  0.00  0.00    +0.058 C 
ATOM      5  C   UNL     1      36.084 -22.638 -16.773  0.00  0.00    +0.043 C 
ATOM      6  C   UNL     1      36.661 -23.254 -14.139  0.00  0.00    +0.043 C 
ATOM      7  C   UNL     1      33.764 -22.773 -17.397  0.00  0.00    +0.052 C 
ATOM      8  C   UNL     1      34.780 -23.855 -12.767  0.00  0.00    +0.015 C 
ATOM      9  C   UNL     1      36.356 -21.997 -17.994  0.00  0.00    +0.011 C 
ATOM     10  C   UNL     1      37.455 -23.168 -12.981  0.00  0.00    +0.008 C 
ATOM     11  C   UNL     1      34.040 -22.131 -18.608  0.00  0.00    +0.140 C 
ATOM     12  C   UNL     1      35.573 -23.764 -11.619  0.00  0.00    +0.001 C 
ATOM     13  C   UNL     1      35.338 -21.745 -18.909  0.00  0.00    +0.037 C 
ATOM     14  C   UNL     1      36.913 -23.423 -11.727  0.00  0.00    +0.001 C 
ENDROOT
BRANCH  11  15
ATOM     15  O   UNL     1      33.035 -21.891 -19.494  0.00  0.00    -0.471 OA
ATOM     16  C   UNL     1      33.055 -20.637 -20.174  0.00  0.00    +0.252 C 
ENDBRANCH  11  15
BRANCH   2  17
ATOM     17  C   UNL     1      33.237 -24.444 -15.119  0.00  0.00    +0.093 C 
BRANCH  17  18
ATOM     18  C   UNL     1      32.018 -23.508 -15.029  0.00  0.00    -0.001 C 
ATOM     19  C   UNL     1      31.606 -23.274 -13.571  0.00  0.00    -0.000 C 
BRANCH  18  20
ATOM     20  C   UNL     1      30.803 -23.990 -15.845  0.00  0.00    -0.076 C 
BRANCH  20  21
ATOM     21  N   UNL     1      29.548 -23.782 -15.131  0.00  0.00    +0.384 N 
ATOM     22  C   UNL     1      28.871 -25.059 -14.898  0.00  0.00    -0.101 C 
ATOM     23  C   UNL     1      28.676 -22.874 -15.877  0.00  0.00    -0.101 C 
ATOM     24  H   UNL     1      29.760 -23.358 -14.228  0.00  0.00    -0.080 HD
ENDBRANCH  20  21
ENDBRANCH  18  20
ENDBRANCH  17  18
ENDBRANCH   2  17
TORSDOF 5
ENDMDL
MODEL 2
REMARK VINA RESULT:      -8.3     10.023     12.434
REMARK  Name = 72287
REMARK  5 active torsions:
REMARK  status: ('A' for Active; 'I' for Inactive)
REMARK    1  A    between atoms: N_2  and  C_17
REMARK    2  A    between atoms: C_11  and  O_15
REMARK    3  A    between atoms: C_17  and  C_18
REMARK    4  A    between atoms: C_18  and  C_20
REMARK    5  A    between atoms: C_20  and  N_21
REMARK                            x       y       z     vdW  Elec       q    Type
REMARK                         _______ _______ _______ _____ _____    ______ ____
ROOT
ATOM      1  S   UNL     1      33.309 -15.908 -25.825  0.00  0.00    -0.084 S 
ATOM      2  N   UNL     1      34.313 -14.750 -23.119  0.00  0.00    -0.286 N 
ATOM      3  C   UNL     1      34.047 -13.798 -24.135  0.00  0.00    +0.061 C 
ATOM      4  C   UNL     1      34.590 -16.124 -23.341  0.00  0.00    +0.058 C 
ATOM      5  C   UNL     1      33.609 -14.201 -25.412  0.00  0.00    +0.043 C 
ATOM      6  C   UNL     1      34.205 -16.757 -24.539  0.00  0.00    +0.043 C 
ATOM      7  C   UNL     1      34.241 -12.413 -23.931  0.00  0.00    +0.052 C 
ATOM      8  C   UNL     1      35.288 -16.907 -22.397  0.00  0.00    +0.015 C 
ATOM      9  C   UNL     1      33.355 -13.252 -26.418  0.00  0.00    +0.011 C 
ATOM     10  C   UNL     1      34.488 -18.117 -24.757  0.00  0.00    +0.008 C 
ATOM     11  C   UNL     1      33.991 -11.475 -24.936  0.00  0.00    +0.140 C 
ATOM     12  C   UNL     1      35.571 -18.258 -22.621  0.00  0.00    +0.001 C 
ATOM     13  C   UNL     1      33.544 -11.894 -26.180  0.00  0.00    +0.037 C 
ATOM     14  C   UNL     1      35.167 -18.864 -23.802  0.00  0.00    +0.001 C 
ENDROOT
BRANCH  11  15
ATOM     15  O   UNL     1      34.180 -10.150 -24.691  0.00  0.00    -0.471 OA
ATOM     16  C   UNL     1      33.521  -9.599 -23.552  0.00  0.00    +0.252 C 
ENDBRANCH  11  15
BRANCH   2  17
ATOM     17  C   UNL     1      34.374 -14.264 -21.735  0.00  0.00    +0.093 C 
BRANCH  17  18
ATOM     18  C   UNL     1      32.981 -14.215 -21.082  0.00  0.00    -0.001 C 
ATOM     19  C   UNL     1      32.412 -15.624 -20.885  0.00  0.00    -0.000 C 
BRANCH  18  20
ATOM     20  C   UNL     1      31.967 -13.343 -21.848  0.00  0.00    -0.076 C 
BRANCH  20  21
ATOM     21  N   UNL     1      31.914 -11.981 -21.329  0.00  0.00    +0.384 N 
ATOM     22  C   UNL     1      31.805 -11.991 -19.869  0.00  0.00    -0.101 C 
ATOM     23  C   UNL     1      30.791 -11.249 -21.917  0.00  0.00    -0.101 C 
ATOM     24  H   UNL     1      32.779 -11.507 -21.586  0.00  0.00    -0.080 HD
ENDBRANCH  20  21
ENDBRANCH  18  20
ENDBRANCH  17  18
ENDBRANCH   2  17
TORSDOF 5
ENDMDL
MODEL 3
REMARK VINA RESULT:      -8.2      2.366      5.060
REMARK  Name = 72287
REMARK  5 active torsions:
REMARK  status: ('A' for Active; 'I' for Inactive)
REMARK    1  A    between atoms: N_2  and  C_17
REMARK    2  A    between atoms: C_11  and  O_15
REMARK    3  A    between atoms: C_17  and  C_18
REMARK    4  A    between atoms: C_18  and  C_20
REMARK    5  A    between atoms: C_20  and  N_21
REMARK                            x       y       z     vdW  Elec       q    Type
REMARK                         _______ _______ _______ _____ _____    ______ ____
ROOT
ATOM      1  S   UNL     1      37.165 -21.743 -16.964  0.00  0.00    -0.084 S 
ATOM      2  N   UNL     1      34.649 -23.479 -16.395  0.00  0.00    -0.286 N 
ATOM      3  C   UNL     1      35.839 -23.885 -15.738  0.00  0.00    +0.061 C 
ATOM      4  C   UNL     1      34.596 -22.687 -17.570  0.00  0.00    +0.058 C 
ATOM      5  C   UNL     1      37.049 -23.192 -15.934  0.00  0.00    +0.043 C 
ATOM      6  C   UNL     1      35.684 -21.875 -17.948  0.00  0.00    +0.043 C 
ATOM      7  C   UNL     1      35.876 -25.016 -14.891  0.00  0.00    +0.052 C 
ATOM      8  C   UNL     1      33.477 -22.699 -18.430  0.00  0.00    +0.015 C 
ATOM      9  C   UNL     1      38.227 -23.604 -15.286  0.00  0.00    +0.011 C 
ATOM     10  C   UNL     1      35.630 -21.097 -19.117  0.00  0.00    +0.008 C 
ATOM     11  C   UNL     1      37.051 -25.423 -14.253  0.00  0.00    +0.140 C 
ATOM     12  C   UNL     1      33.430 -21.927 -19.595  0.00  0.00    +0.001 C 
ATOM     13  C   UNL     1      38.227 -24.715 -14.447  0.00  0.00    +0.037 C 
ATOM     14  C   UNL     1      34.507 -21.123 -19.937  0.00  0.00    +0.001 C 
ENDROOT
BRANCH  11  15
ATOM     15  O   UNL     1      37.038 -26.511 -13.435  0.00  0.00    -0.471 OA
ATOM     16  C   UNL     1      37.393 -26.301 -12.069  0.00  0.00    +0.252 C 
ENDBRANCH  11  15
BRANCH   2  17
ATOM     17  C   UNL     1      33.376 -23.974 -15.856  0.00  0.00    +0.093 C 
BRANCH  17  18
ATOM     18  C   UNL     1      32.855 -23.088 -14.711  0.00  0.00    -0.001 C 
ATOM     19  C   UNL     1      33.135 -23.725 -13.346  0.00  0.00    -0.000 C 
BRANCH  18  20
ATOM     20  C   UNL     1      31.358 -22.740 -14.827  0.00  0.00    -0.076 C 
BRANCH  20  21
ATOM     21  N   UNL     1      30.653 -23.651 -15.722  0.00  0.00    +0.384 N 
ATOM     22  C   UNL     1      29.703 -22.917 -16.560  0.00  0.00    -0.101 C 
ATOM     23  C   UNL     1      29.959 -24.689 -14.958  0.00  0.00    -0.101 C 
ATOM     24  H   UNL     1      31.340 -24.100 -16.328  0.00  0.00    -0.080 HD
ENDBRANCH  20  21
ENDBRANCH  18  20
ENDBRANCH  17  18
ENDBRANCH   2  17
TORSDOF 5
ENDMDL
MODEL 4
REMARK VINA RESULT:      -8.1      9.741     12.838
REMARK  Name = 72287
REMARK  5 active torsions:
REMARK  status: ('A' for Active; 'I' for Inactive)
REMARK    1  A    between atoms: N_2  and  C_17
REMARK    2  A    between atoms: C_11  and  O_15
REMARK    3  A    between atoms: C_17  and  C_18
REMARK    4  A    between atoms: C_18  and  C_20
REMARK    5  A    between atoms: C_20  and  N_21
REMARK                            x       y       z     vdW  Elec       q    Type
REMARK                         _______ _______ _______ _____ _____    ______ ____
ROOT
ATOM      1  S   UNL     1      34.164 -16.758 -21.024  0.00  0.00    -0.084 S 
ATOM      2  N   UNL     1      34.099 -15.046 -23.618  0.00  0.00    -0.286 N 
ATOM      3  C   UNL     1      33.441 -14.485 -22.494  0.00  0.00    +0.061 C 
ATOM      4  C   UNL     1      34.371 -16.426 -23.800  0.00  0.00    +0.058 C 
ATOM      5  C   UNL     1      33.382 -15.175 -21.268  0.00  0.00    +0.043 C 
ATOM      6  C   UNL     1      34.405 -17.308 -22.702  0.00  0.00    +0.043 C 
ATOM      7  C   UNL     1      32.787 -13.234 -22.558  0.00  0.00    +0.052 C 
ATOM      8  C   UNL     1      34.585 -16.984 -25.079  0.00  0.00    +0.015 C 
ATOM      9  C   UNL     1      32.722 -14.618 -20.159  0.00  0.00    +0.011 C 
ATOM     10  C   UNL     1      34.668 -18.677 -22.888  0.00  0.00    +0.008 C 
ATOM     11  C   UNL     1      32.128 -12.686 -21.454  0.00  0.00    +0.140 C 
ATOM     12  C   UNL     1      34.842 -18.346 -25.257  0.00  0.00    +0.001 C 
ATOM     13  C   UNL     1      32.099 -13.377 -20.251  0.00  0.00    +0.037 C 
ATOM     14  C   UNL     1      34.886 -19.193 -24.160  0.00  0.00    +0.001 C 
ENDROOT
BRANCH  11  15
ATOM     15  O   UNL     1      31.522 -11.472 -21.557  0.00  0.00    -0.471 OA
ATOM     16  C   UNL     1      30.921 -10.944 -20.375  0.00  0.00    +0.252 C 
ENDBRANCH  11  15
BRANCH   2  17
ATOM     17  C   UNL     1      34.465 -14.135 -24.711  0.00  0.00    +0.093 C 
BRANCH  17  18
ATOM     18  C   UNL     1      33.226 -13.491 -25.360  0.00  0.00    -0.001 C 
ATOM     19  C   UNL     1      32.649 -14.387 -26.461  0.00  0.00    -0.000 C 
BRANCH  18  20
ATOM     20  C   UNL     1      33.482 -12.077 -25.917  0.00  0.00    -0.076 C 
BRANCH  20  21
ATOM     21  N   UNL     1      34.461 -11.345 -25.121  0.00  0.00    +0.384 N 
ATOM     22  C   UNL     1      33.790 -10.429 -24.196  0.00  0.00    -0.101 C 
ATOM     23  C   UNL     1      35.381 -10.607 -25.987  0.00  0.00    -0.101 C 
ATOM     24  H   UNL     1      34.999 -12.019 -24.576  0.00  0.00    -0.080 HD
ENDBRANCH  20  21
ENDBRANCH  18  20
ENDBRANCH  17  18
ENDBRANCH   2  17
TORSDOF 5
ENDMDL
MODEL 5
REMARK VINA RESULT:      -7.8      8.319     12.032
REMARK  Name = 72287
REMARK  5 active torsions:
REMARK  status: ('A' for Active; 'I' for Inactive)
REMARK    1  A    between atoms: N_2  and  C_17
REMARK    2  A    between atoms: C_11  and  O_15
REMARK    3  A    between atoms: C_17  and  C_18
REMARK    4  A    between atoms: C_18  and  C_20
REMARK    5  A    between atoms: C_20  and  N_21
REMARK                            x       y       z     vdW  Elec       q    Type
REMARK                         _______ _______ _______ _____ _____    ______ ____
ROOT
ATOM      1  S   UNL     1      32.680 -11.425 -24.235  0.00  0.00    -0.084 S 
ATOM      2  N   UNL     1      33.436 -13.752 -22.318  0.00  0.00    -0.286 N 
ATOM      3  C   UNL     1      33.468 -14.060 -23.702  0.00  0.00    +0.061 C 
ATOM      4  C   UNL     1      32.696 -12.692 -21.735  0.00  0.00    +0.058 C 
ATOM      5  C   UNL     1      33.125 -13.095 -24.668  0.00  0.00    +0.043 C 
ATOM      6  C   UNL     1      32.275 -11.591 -22.508  0.00  0.00    +0.043 C 
ATOM      7  C   UNL     1      33.810 -15.347 -24.173  0.00  0.00    +0.052 C 
ATOM      8  C   UNL     1      32.318 -12.702 -20.375  0.00  0.00    +0.015 C 
ATOM      9  C   UNL     1      33.152 -13.408 -26.039  0.00  0.00    +0.011 C 
ATOM     10  C   UNL     1      31.536 -10.545 -21.928  0.00  0.00    +0.008 C 
ATOM     11  C   UNL     1      33.831 -15.654 -25.537  0.00  0.00    +0.140 C 
ATOM     12  C   UNL     1      31.578 -11.662 -19.805  0.00  0.00    +0.001 C 
ATOM     13  C   UNL     1      33.505 -14.682 -26.471  0.00  0.00    +0.037 C 
ATOM     14  C   UNL     1      31.190 -10.581 -20.581  0.00  0.00    +0.001 C 
ENDROOT
BRANCH  11  15
ATOM     15  O   UNL     1      34.178 -16.904 -25.947  0.00  0.00    -0.471 OA
ATOM     16  C   UNL     1      34.582 -17.830 -24.939  0.00  0.00    +0.252 C 
ENDBRANCH  11  15
BRANCH   2  17
ATOM     17  C   UNL     1      34.169 -14.643 -21.409  0.00  0.00    +0.093 C 
BRANCH  17  18
ATOM     18  C   UNL     1      33.581 -16.065 -21.402  0.00  0.00    -0.001 C 
ATOM     19  C   UNL     1      32.212 -16.095 -20.713  0.00  0.00    -0.000 C 
BRANCH  18  20
ATOM     20  C   UNL     1      34.509 -17.118 -20.766  0.00  0.00    -0.076 C 
BRANCH  20  21
ATOM     21  N   UNL     1      34.684 -18.284 -21.626  0.00  0.00    +0.384 N 
ATOM     22  C   UNL     1      33.846 -19.392 -21.167  0.00  0.00    -0.101 C 
ATOM     23  C   UNL     1      36.090 -18.691 -21.662  0.00  0.00    -0.101 C 
ATOM     24  H   UNL     1      34.397 -18.030 -22.571  0.00  0.00    -0.080 HD
ENDBRANCH  20  21
ENDBRANCH  18  20
ENDBRANCH  17  18
ENDBRANCH   2  17
TORSDOF 5
ENDMDL
MODEL 6
REMARK VINA RESULT:      -7.7      2.648      6.410
REMARK  Name = 72287
REMARK  5 active torsions:
REMARK  status: ('A' for Active; 'I' for Inactive)
REMARK    1  A    between atoms: N_2  and  C_17
REMARK    2  A    between atoms: C_11  and  O_15
REMARK    3  A    between atoms: C_17  and  C_18
REMARK    4  A    between atoms: C_18  and  C_20
REMARK    5  A    between atoms: C_20  and  N_21
REMARK                            x       y       z     vdW  Elec       q    Type
REMARK                         _______ _______ _______ _____ _____    ______ ____
ROOT
ATOM      1  S   UNL     1      33.189 -22.987 -18.471  0.00  0.00    -0.084 S 
ATOM      2  N   UNL     1      34.983 -22.968 -15.932  0.00  0.00    -0.286 N 
ATOM      3  C   UNL     1      33.601 -23.186 -15.706  0.00  0.00    +0.061 C 
ATOM      4  C   UNL     1      35.533 -22.340 -17.078  0.00  0.00    +0.058 C 
ATOM      5  C   UNL     1      32.683 -23.194 -16.775  0.00  0.00    +0.043 C 
ATOM      6  C   UNL     1      34.807 -22.264 -18.283  0.00  0.00    +0.043 C 
ATOM      7  C   UNL     1      33.075 -23.369 -14.407  0.00  0.00    +0.052 C 
ATOM      8  C   UNL     1      36.809 -21.735 -17.060  0.00  0.00    +0.015 C 
ATOM      9  C   UNL     1      31.312 -23.403 -16.544  0.00  0.00    +0.011 C 
ATOM     10  C   UNL     1      35.354 -21.635 -19.415  0.00  0.00    +0.008 C 
ATOM     11  C   UNL     1      31.710 -23.572 -14.184  0.00  0.00    +0.140 C 
ATOM     12  C   UNL     1      37.346 -21.106 -18.187  0.00  0.00    +0.001 C 
ATOM     13  C   UNL     1      30.828 -23.593 -15.253  0.00  0.00    +0.037 C 
ATOM     14  C   UNL     1      36.618 -21.058 -19.367  0.00  0.00    +0.001 C 
ENDROOT
BRANCH  11  15
ATOM     15  O   UNL     1      31.249 -23.756 -12.917  0.00  0.00    -0.471 OA
ATOM     16  C   UNL     1      30.163 -24.665 -12.746  0.00  0.00    +0.252 C 
ENDBRANCH  11  15
BRANCH   2  17
ATOM     17  C   UNL     1      35.913 -23.361 -14.865  0.00  0.00    +0.093 C 
BRANCH  17  18
ATOM     18  C   UNL     1      36.844 -24.505 -15.307  0.00  0.00    -0.001 C 
ATOM     19  C   UNL     1      36.299 -25.866 -14.860  0.00  0.00    -0.000 C 
BRANCH  18  20
ATOM     20  C   UNL     1      38.299 -24.341 -14.829  0.00  0.00    -0.076 C 
BRANCH  20  21
ATOM     21  N   UNL     1      38.615 -25.236 -13.721  0.00  0.00    +0.384 N 
ATOM     22  C   UNL     1      38.496 -24.533 -12.442  0.00  0.00    -0.101 C 
ATOM     23  C   UNL     1      39.961 -25.790 -13.873  0.00  0.00    -0.101 C 
ATOM     24  H   UNL     1      37.945 -26.005 -13.731  0.00  0.00    -0.080 HD
ENDBRANCH  20  21
ENDBRANCH  18  20
ENDBRANCH  17  18
ENDBRANCH   2  17
TORSDOF 5
ENDMDL
MODEL 7
REMARK VINA RESULT:      -7.6      2.434      6.177
REMARK  Name = 72287
REMARK  5 active torsions:
REMARK  status: ('A' for Active; 'I' for Inactive)
REMARK    1  A    between atoms: N_2  and  C_17
REMARK    2  A    between atoms: C_11  and  O_15
REMARK    3  A    between atoms: C_17  and  C_18
REMARK    4  A    between atoms: C_18  and  C_20
REMARK    5  A    between atoms: C_20  and  N_21
REMARK                            x       y       z     vdW  Elec       q    Type
REMARK                         _______ _______ _______ _____ _____    ______ ____
ROOT
ATOM      1  S   UNL     1      32.461 -24.482 -13.536  0.00  0.00    -0.084 S 
ATOM      2  N   UNL     1      33.254 -23.583 -16.404  0.00  0.00    -0.286 N 
ATOM      3  C   UNL     1      34.328 -23.749 -15.492  0.00  0.00    +0.061 C 
ATOM      4  C   UNL     1      31.903 -23.354 -16.040  0.00  0.00    +0.058 C 
ATOM      5  C   UNL     1      34.093 -24.132 -14.157  0.00  0.00    +0.043 C 
ATOM      6  C   UNL     1      31.428 -23.698 -14.759  0.00  0.00    +0.043 C 
ATOM      7  C   UNL     1      35.669 -23.506 -15.865  0.00  0.00    +0.052 C 
ATOM      8  C   UNL     1      30.984 -22.745 -16.922  0.00  0.00    +0.015 C 
ATOM      9  C   UNL     1      35.161 -24.287 -13.255  0.00  0.00    +0.011 C 
ATOM     10  C   UNL     1      30.089 -23.463 -14.400  0.00  0.00    +0.008 C 
ATOM     11  C   UNL     1      36.726 -23.658 -14.962  0.00  0.00    +0.140 C 
ATOM     12  C   UNL     1      29.654 -22.510 -16.558  0.00  0.00    +0.001 C 
ATOM     13  C   UNL     1      36.472 -24.053 -13.657  0.00  0.00    +0.037 C 
ATOM     14  C   UNL     1      29.206 -22.872 -15.296  0.00  0.00    +0.001 C 
ENDROOT
BRANCH  11  15
ATOM     15  O   UNL     1      38.004 -23.426 -15.368  0.00  0.00    -0.471 OA
ATOM     16  C   UNL     1      38.955 -24.466 -15.146  0.00  0.00    +0.252 C 
ENDBRANCH  11  15
BRANCH   2  17
ATOM     17  C   UNL     1      33.578 -23.579 -17.836  0.00  0.00    +0.093 C 
BRANCH  17  18
ATOM     18  C   UNL     1      34.039 -22.190 -18.316  0.00  0.00    -0.001 C 
ATOM     19  C   UNL     1      32.998 -21.552 -19.242  0.00  0.00    -0.000 C 
BRANCH  18  20
ATOM     20  C   UNL     1      35.417 -22.197 -19.004  0.00  0.00    -0.076 C 
BRANCH  20  21
ATOM     21  N   UNL     1      36.107 -20.919 -18.859  0.00  0.00    +0.384 N 
ATOM     22  C   UNL     1      36.679 -20.496 -20.139  0.00  0.00    -0.101 C 
ATOM     23  C   UNL     1      37.154 -21.012 -17.841  0.00  0.00    -0.101 C 
ATOM     24  H   UNL     1      35.426 -20.221 -18.561  0.00  0.00    -0.080 HD
ENDBRANCH  20  21
ENDBRANCH  18  20
ENDBRANCH  17  18
ENDBRANCH   2  17
TORSDOF 5
ENDMDL
MODEL 8
REMARK VINA RESULT:      -7.4      9.270     13.020
REMARK  Name = 72287
REMARK  5 active torsions:
REMARK  status: ('A' for Active; 'I' for Inactive)
REMARK    1  A    between atoms: N_2  and  C_17
REMARK    2  A    between atoms: C_11  and  O_15
REMARK    3  A    between atoms: C_17  and  C_18
REMARK    4  A    between atoms: C_18  and  C_20
REMARK    5  A    between atoms: C_20  and  N_21
REMARK                            x       y       z     vdW  Elec       q    Type
REMARK                         _______ _______ _______ _____ _____    ______ ____
ROOT
ATOM      1  S   UNL     1      33.728 -10.426 -23.755  0.00  0.00    -0.084 S 
ATOM      2  N   UNL     1      32.481 -13.083 -22.730  0.00  0.00    -0.286 N 
ATOM      3  C   UNL     1      32.907 -13.085 -24.082  0.00  0.00    +0.061 C 
ATOM      4  C   UNL     1      32.164 -11.924 -21.977  0.00  0.00    +0.058 C 
ATOM      5  C   UNL     1      33.468 -11.933 -24.669  0.00  0.00    +0.043 C 
ATOM      6  C   UNL     1      32.651 -10.657 -22.354  0.00  0.00    +0.043 C 
ATOM      7  C   UNL     1      32.760 -14.220 -24.911  0.00  0.00    +0.052 C 
ATOM      8  C   UNL     1      31.325 -11.976 -20.842  0.00  0.00    +0.015 C 
ATOM      9  C   UNL     1      33.881 -11.939 -26.013  0.00  0.00    +0.011 C 
ATOM     10  C   UNL     1      32.328  -9.510 -21.608  0.00  0.00    +0.008 C 
ATOM     11  C   UNL     1      33.169 -14.218 -26.248  0.00  0.00    +0.140 C 
ATOM     12  C   UNL     1      31.003 -10.832 -20.107  0.00  0.00    +0.001 C 
ATOM     13  C   UNL     1      33.734 -13.078 -26.798  0.00  0.00    +0.037 C 
ATOM     14  C   UNL     1      31.508  -9.598 -20.489  0.00  0.00    +0.001 C 
ENDROOT
BRANCH  11  15
ATOM     15  O   UNL     1      33.019 -15.338 -27.006  0.00  0.00    -0.471 OA
ATOM     16  C   UNL     1      32.873 -16.577 -26.313  0.00  0.00    +0.252 C 
ENDBRANCH  11  15
BRANCH   2  17
ATOM     17  C   UNL     1      32.286 -14.386 -22.080  0.00  0.00    +0.093 C 
BRANCH  17  18
ATOM     18  C   UNL     1      33.514 -14.801 -21.250  0.00  0.00    -0.001 C 
ATOM     19  C   UNL     1      34.789 -14.129 -21.771  0.00  0.00    -0.000 C 
BRANCH  18  20
ATOM     20  C   UNL     1      33.722 -16.326 -21.169  0.00  0.00    -0.076 C 
BRANCH  20  21
ATOM     21  N   UNL     1      34.954 -16.745 -21.829  0.00  0.00    +0.384 N 
ATOM     22  C   UNL     1      34.697 -17.088 -23.229  0.00  0.00    -0.101 C 
ATOM     23  C   UNL     1      35.551 -17.883 -21.128  0.00  0.00    -0.101 C 
ATOM     24  H   UNL     1      35.612 -15.967 -21.802  0.00  0.00    -0.080 HD
ENDBRANCH  20  21
ENDBRANCH  18  20
ENDBRANCH  17  18
ENDBRANCH   2  17
TORSDOF 5
ENDMDL
MODEL 9
REMARK VINA RESULT:      -7.4     13.814     16.418
REMARK  Name = 72287
REMARK  5 active torsions:
REMARK  status: ('A' for Active; 'I' for Inactive)
REMARK    1  A    between atoms: N_2  and  C_17
REMARK    2  A    between atoms: C_11  and  O_15
REMARK    3  A    between atoms: C_17  and  C_18
REMARK    4  A    between atoms: C_18  and  C_20
REMARK    5  A    between atoms: C_20  and  N_21
REMARK                            x       y       z     vdW  Elec       q    Type
REMARK                         _______ _______ _______ _____ _____    ______ ____
ROOT
ATOM      1  S   UNL     1      31.740 -12.055 -22.387  0.00  0.00    -0.084 S 
ATOM      2  N   UNL     1      32.892  -9.172 -22.542  0.00  0.00    -0.286 N 
ATOM      3  C   UNL     1      33.393 -10.087 -23.502  0.00  0.00    +0.061 C 
ATOM      4  C   UNL     1      32.299  -9.531 -21.305  0.00  0.00    +0.058 C 
ATOM      5  C   UNL     1      32.965 -11.429 -23.519  0.00  0.00    +0.043 C 
ATOM      6  C   UNL     1      31.762 -10.818 -21.104  0.00  0.00    +0.043 C 
ATOM      7  C   UNL     1      34.364  -9.711 -24.457  0.00  0.00    +0.052 C 
ATOM      8  C   UNL     1      32.248  -8.637 -20.213  0.00  0.00    +0.015 C 
ATOM      9  C   UNL     1      33.472 -12.334 -24.468  0.00  0.00    +0.011 C 
ATOM     10  C   UNL     1      31.180 -11.171 -19.874  0.00  0.00    +0.008 C 
ATOM     11  C   UNL     1      34.868 -10.616 -25.396  0.00  0.00    +0.140 C 
ATOM     12  C   UNL     1      31.673  -8.996 -18.990  0.00  0.00    +0.001 C 
ATOM     13  C   UNL     1      34.418 -11.928 -25.404  0.00  0.00    +0.037 C 
ATOM     14  C   UNL     1      31.136 -10.264 -18.822  0.00  0.00    +0.001 C 
ENDROOT
BRANCH  11  15
ATOM     15  O   UNL     1      35.793 -10.208 -26.306  0.00  0.00    -0.471 OA
ATOM     16  C   UNL     1      35.863 -10.934 -27.532  0.00  0.00    +0.252 C 
ENDBRANCH  11  15
BRANCH   2  17
ATOM     17  C   UNL     1      33.063  -7.740 -22.819  0.00  0.00    +0.093 C 
BRANCH  17  18
ATOM     18  C   UNL     1      31.723  -7.053 -23.139  0.00  0.00    -0.001 C 
ATOM     19  C   UNL     1      30.935  -7.840 -24.192  0.00  0.00    -0.000 C 
BRANCH  18  20
ATOM     20  C   UNL     1      31.868  -5.585 -23.584  0.00  0.00    -0.076 C 
BRANCH  20  21
ATOM     21  N   UNL     1      30.765  -4.758 -23.106  0.00  0.00    +0.384 N 
ATOM     22  C   UNL     1      31.125  -3.340 -23.160  0.00  0.00    -0.101 C 
ATOM     23  C   UNL     1      30.392  -5.135 -21.742  0.00  0.00    -0.101 C 
ATOM     24  H   UNL     1      29.962  -4.912 -23.716  0.00  0.00    -0.080 HD
ENDBRANCH  20  21
ENDBRANCH  18  20
ENDBRANCH  17  18
ENDBRANCH   2  17
TORSDOF 5
ENDMDL
