MODEL 1
REMARK VINA RESULT:      -8.2      0.000      0.000
REMARK  Name = 447411
REMARK  6 active torsions:
REMARK  status: ('A' for Active; 'I' for Inactive)
REMARK    1  A    between atoms: N_2  and  C_4
REMARK    2  A    between atoms: N_2  and  C_14
REMARK    3  A    between atoms: C_3  and  C_25
REMARK    4  A    between atoms: C_15  and  C_21
REMARK    5  A    between atoms: C_21  and  O_22
REMARK    6  A    between atoms: C_25  and  O_26
REMARK                            x       y       z     vdW  Elec       q    Type
REMARK                         _______ _______ _______ _____ _____    ______ ____
ROOT
ATOM      1  O   UNL     1      32.941 -22.377 -15.365  0.00  0.00    -0.262 OA
ATOM      2  N   UNL     1      34.995 -23.546 -15.573  0.00  0.00    -0.228 N 
ATOM      3  C   UNL     1      33.697 -23.284 -15.038  0.00  0.00    +0.332 C 
ENDROOT
BRANCH   2   4
ATOM      4  C   UNL     1      35.773 -24.591 -15.060  0.00  0.00    +0.059 C 
ATOM      5  C   UNL     1      36.579 -24.423 -13.922  0.00  0.00    +0.014 C 
ATOM      6  C   UNL     1      37.345 -25.516 -13.450  0.00  0.00    +0.001 C 
ATOM      7  C   UNL     1      35.722 -25.818 -15.723  0.00  0.00    +0.015 C 
ATOM      8  C   UNL     1      36.644 -23.195 -13.244  0.00  0.00    +0.001 C 
ATOM      9  C   UNL     1      37.280 -26.745 -14.128  0.00  0.00    +0.000 C 
ATOM     10  C   UNL     1      36.474 -26.893 -15.258  0.00  0.00    +0.001 C 
ATOM     11  C   UNL     1      38.151 -25.349 -12.313  0.00  0.00    +0.000 C 
ATOM     12  C   UNL     1      37.451 -23.048 -12.115  0.00  0.00    +0.000 C 
ATOM     13  C   UNL     1      38.203 -24.122 -11.650  0.00  0.00    +0.000 C 
ENDBRANCH   2   4
BRANCH   2  14
ATOM     14  C   UNL     1      35.501 -22.716 -16.658  0.00  0.00    +0.065 C 
ATOM     15  C   UNL     1      34.820 -22.690 -17.841  0.00  0.00    +0.089 C 
ATOM     16  C   UNL     1      36.643 -22.006 -16.411  0.00  0.00    +0.015 C 
ATOM     17  C   UNL     1      35.323 -21.888 -18.865  0.00  0.00    +0.008 C 
ATOM     18  C   UNL     1      37.146 -21.204 -17.435  0.00  0.00    +0.001 C 
ATOM     19  C   UNL     1      36.486 -21.145 -18.662  0.00  0.00    +0.000 C 
BRANCH  15  21
ATOM     20  O   UNL     1      33.556 -24.668 -18.305  0.00  0.00    -0.245 OA
ATOM     21  C   UNL     1      33.604 -23.454 -18.087  0.00  0.00    +0.339 C 
BRANCH  21  22
ATOM     22  O   UNL     1      32.488 -22.678 -18.050  0.00  0.00    -0.477 OA
ATOM     23  H   UNL     1      32.200 -22.311 -17.237  0.00  0.00    +0.295 HD
ENDBRANCH  21  22
ENDBRANCH  15  21
ENDBRANCH   2  14
BRANCH   3  25
ATOM     24  O   UNL     1      32.623 -25.203 -14.122  0.00  0.00    -0.240 OA
ATOM     25  C   UNL     1      33.190 -24.148 -13.921  0.00  0.00    +0.393 C 
BRANCH  25  26
ATOM     26  O   UNL     1      33.402 -23.538 -12.747  0.00  0.00    -0.474 OA
ATOM     27  H   UNL     1      33.091 -23.928 -11.953  0.00  0.00    +0.296 HD
ENDBRANCH  25  26
ENDBRANCH   3  25
TORSDOF 6
ENDMDL
MODEL 2
REMARK VINA RESULT:      -6.5      1.540      4.994
REMARK  Name = 447411
REMARK  6 active torsions:
REMARK  status: ('A' for Active; 'I' for Inactive)
REMARK    1  A    between atoms: N_2  and  C_4
REMARK    2  A    between atoms: N_2  and  C_14
REMARK    3  A    between atoms: C_3  and  C_25
REMARK    4  A    between atoms: C_15  and  C_21
REMARK    5  A    between atoms: C_21  and  O_22
REMARK    6  A    between atoms: C_25  and  O_26
REMARK                            x       y       z     vdW  Elec       q    Type
REMARK                         _______ _______ _______ _____ _____    ______ ____
ROOT
ATOM      1  O   UNL     1      33.104 -24.912 -12.932  0.00  0.00    -0.262 OA
ATOM      2  N   UNL     1      34.363 -24.395 -14.876  0.00  0.00    -0.228 N 
ATOM      3  C   UNL     1      33.244 -24.314 -13.993  0.00  0.00    +0.332 C 
ENDROOT
BRANCH   2   4
ATOM      4  C   UNL     1      34.360 -23.694 -16.087  0.00  0.00    +0.059 C 
ATOM      5  C   UNL     1      35.432 -22.870 -16.467  0.00  0.00    +0.014 C 
ATOM      6  C   UNL     1      35.372 -22.183 -17.704  0.00  0.00    +0.001 C 
ATOM      7  C   UNL     1      33.245 -23.840 -16.914  0.00  0.00    +0.015 C 
ATOM      8  C   UNL     1      36.561 -22.711 -15.648  0.00  0.00    +0.001 C 
ATOM      9  C   UNL     1      34.243 -22.343 -18.525  0.00  0.00    +0.000 C 
ATOM     10  C   UNL     1      33.187 -23.166 -18.130  0.00  0.00    +0.001 C 
ATOM     11  C   UNL     1      36.443 -21.360 -18.085  0.00  0.00    +0.000 C 
ATOM     12  C   UNL     1      37.616 -21.888 -16.043  0.00  0.00    +0.000 C 
ATOM     13  C   UNL     1      37.558 -21.213 -17.259  0.00  0.00    +0.000 C 
ENDBRANCH   2   4
BRANCH   2  14
ATOM     14  C   UNL     1      35.509 -25.215 -14.503  0.00  0.00    +0.065 C 
ATOM     15  C   UNL     1      36.152 -24.953 -13.327  0.00  0.00    +0.089 C 
ATOM     16  C   UNL     1      35.865 -26.208 -15.372  0.00  0.00    +0.015 C 
ATOM     17  C   UNL     1      37.246 -25.750 -12.991  0.00  0.00    +0.008 C 
ATOM     18  C   UNL     1      36.959 -27.006 -15.036  0.00  0.00    +0.001 C 
ATOM     19  C   UNL     1      37.649 -26.777 -13.846  0.00  0.00    +0.000 C 
BRANCH  15  21
ATOM     20  O   UNL     1      35.966 -22.685 -12.590  0.00  0.00    -0.245 OA
ATOM     21  C   UNL     1      35.758 -23.888 -12.414  0.00  0.00    +0.339 C 
BRANCH  21  22
ATOM     22  O   UNL     1      35.116 -24.362 -11.313  0.00  0.00    -0.477 OA
ATOM     23  H   UNL     1      34.248 -24.708 -11.390  0.00  0.00    +0.295 HD
ENDBRANCH  21  22
ENDBRANCH  15  21
ENDBRANCH   2  14
BRANCH   3  25
ATOM     24  O   UNL     1      31.091 -23.928 -14.939  0.00  0.00    -0.240 OA
ATOM     25  C   UNL     1      32.072 -23.466 -14.390  0.00  0.00    +0.393 C 
BRANCH  25  26
ATOM     26  O   UNL     1      32.329 -22.181 -14.110  0.00  0.00    -0.474 OA
ATOM     27  H   UNL     1      31.897 -21.763 -13.390  0.00  0.00    +0.296 HD
ENDBRANCH  25  26
ENDBRANCH   3  25
TORSDOF 6
ENDMDL
MODEL 3
REMARK VINA RESULT:      -6.3      1.464      2.283
REMARK  Name = 447411
REMARK  6 active torsions:
REMARK  status: ('A' for Active; 'I' for Inactive)
REMARK    1  A    between atoms: N_2  and  C_4
REMARK    2  A    between atoms: N_2  and  C_14
REMARK    3  A    between atoms: C_3  and  C_25
REMARK    4  A    between atoms: C_15  and  C_21
REMARK    5  A    between atoms: C_21  and  O_22
REMARK    6  A    between atoms: C_25  and  O_26
REMARK                            x       y       z     vdW  Elec       q    Type
REMARK                         _______ _______ _______ _____ _____    ______ ____
ROOT
ATOM      1  O   UNL     1      32.719 -22.646 -15.063  0.00  0.00    -0.262 OA
ATOM      2  N   UNL     1      34.754 -23.770 -15.543  0.00  0.00    -0.228 N 
ATOM      3  C   UNL     1      33.571 -23.486 -14.795  0.00  0.00    +0.332 C 
ENDROOT
BRANCH   2   4
ATOM      4  C   UNL     1      35.669 -24.724 -15.083  0.00  0.00    +0.059 C 
ATOM      5  C   UNL     1      36.441 -24.512 -13.929  0.00  0.00    +0.014 C 
ATOM      6  C   UNL     1      37.351 -25.513 -13.512  0.00  0.00    +0.001 C 
ATOM      7  C   UNL     1      35.791 -25.906 -15.815  0.00  0.00    +0.015 C 
ATOM      8  C   UNL     1      36.332 -23.329 -13.180  0.00  0.00    +0.001 C 
ATOM      9  C   UNL     1      37.461 -26.698 -14.260  0.00  0.00    +0.000 C 
ATOM     10  C   UNL     1      36.685 -26.891 -15.405  0.00  0.00    +0.001 C 
ATOM     11  C   UNL     1      38.124 -25.302 -12.359  0.00  0.00    +0.000 C 
ATOM     12  C   UNL     1      37.108 -23.137 -12.037  0.00  0.00    +0.000 C 
ATOM     13  C   UNL     1      38.002 -24.121 -11.626  0.00  0.00    +0.000 C 
ENDBRANCH   2   4
BRANCH   2  14
ATOM     14  C   UNL     1      34.999 -23.057 -16.789  0.00  0.00    +0.065 C 
ATOM     15  C   UNL     1      36.202 -22.437 -16.968  0.00  0.00    +0.089 C 
ATOM     16  C   UNL     1      33.989 -23.060 -17.710  0.00  0.00    +0.015 C 
ATOM     17  C   UNL     1      36.414 -21.760 -18.169  0.00  0.00    +0.008 C 
ATOM     18  C   UNL     1      34.201 -22.383 -18.911  0.00  0.00    +0.001 C 
ATOM     19  C   UNL     1      35.413 -21.734 -19.141  0.00  0.00    +0.000 C 
BRANCH  15  21
ATOM     20  O   UNL     1      37.358 -21.665 -15.020  0.00  0.00    -0.245 OA
ATOM     21  C   UNL     1      37.267 -22.443 -15.974  0.00  0.00    +0.339 C 
BRANCH  21  22
ATOM     22  O   UNL     1      38.183 -23.423 -16.203  0.00  0.00    -0.477 OA
ATOM     23  H   UNL     1      37.956 -24.320 -16.052  0.00  0.00    +0.295 HD
ENDBRANCH  21  22
ENDBRANCH  15  21
ENDBRANCH   2  14
BRANCH   3  25
ATOM     24  O   UNL     1      33.698 -23.801 -12.436  0.00  0.00    -0.240 OA
ATOM     25  C   UNL     1      33.333 -24.229 -13.512  0.00  0.00    +0.393 C 
BRANCH  25  26
ATOM     26  O   UNL     1      32.747 -25.406 -13.775  0.00  0.00    -0.474 OA
ATOM     27  H   UNL     1      31.917 -25.611 -13.391  0.00  0.00    +0.296 HD
ENDBRANCH  25  26
ENDBRANCH   3  25
TORSDOF 6
ENDMDL
MODEL 4
REMARK VINA RESULT:      -6.3      1.706      3.335
REMARK  Name = 447411
REMARK  6 active torsions:
REMARK  status: ('A' for Active; 'I' for Inactive)
REMARK    1  A    between atoms: N_2  and  C_4
REMARK    2  A    between atoms: N_2  and  C_14
REMARK    3  A    between atoms: C_3  and  C_25
REMARK    4  A    between atoms: C_15  and  C_21
REMARK    5  A    between atoms: C_21  and  O_22
REMARK    6  A    between atoms: C_25  and  O_26
REMARK                            x       y       z     vdW  Elec       q    Type
REMARK                         _______ _______ _______ _____ _____    ______ ____
ROOT
ATOM      1  O   UNL     1      35.022 -21.472 -16.733  0.00  0.00    -0.262 OA
ATOM      2  N   UNL     1      34.967 -23.489 -15.484  0.00  0.00    -0.228 N 
ATOM      3  C   UNL     1      35.585 -22.426 -16.210  0.00  0.00    +0.332 C 
ENDROOT
BRANCH   2   4
ATOM      4  C   UNL     1      35.737 -24.548 -14.989  0.00  0.00    +0.059 C 
ATOM      5  C   UNL     1      36.423 -24.456 -13.767  0.00  0.00    +0.014 C 
ATOM      6  C   UNL     1      37.187 -25.559 -13.317  0.00  0.00    +0.001 C 
ATOM      7  C   UNL     1      35.803 -25.712 -15.757  0.00  0.00    +0.015 C 
ATOM      8  C   UNL     1      36.367 -23.293 -12.981  0.00  0.00    +0.001 C 
ATOM      9  C   UNL     1      37.241 -26.723 -14.102  0.00  0.00    +0.000 C 
ATOM     10  C   UNL     1      36.554 -26.797 -15.314  0.00  0.00    +0.001 C 
ATOM     11  C   UNL     1      37.872 -25.467 -12.095  0.00  0.00    +0.000 C 
ATOM     12  C   UNL     1      37.055 -23.220 -11.770  0.00  0.00    +0.000 C 
ATOM     13  C   UNL     1      37.806 -24.304 -11.327  0.00  0.00    +0.000 C 
ENDBRANCH   2   4
BRANCH   2  14
ATOM     14  C   UNL     1      33.527 -23.460 -15.264  0.00  0.00    +0.065 C 
ATOM     15  C   UNL     1      32.696 -23.427 -16.347  0.00  0.00    +0.089 C 
ATOM     16  C   UNL     1      33.101 -23.469 -13.965  0.00  0.00    +0.015 C 
ATOM     17  C   UNL     1      31.321 -23.400 -16.112  0.00  0.00    +0.008 C 
ATOM     18  C   UNL     1      31.727 -23.442 -13.731  0.00  0.00    +0.001 C 
ATOM     19  C   UNL     1      30.837 -23.408 -14.803  0.00  0.00    +0.000 C 
BRANCH  15  21
ATOM     20  O   UNL     1      33.843 -24.303 -18.255  0.00  0.00    -0.245 OA
ATOM     21  C   UNL     1      33.168 -23.416 -17.725  0.00  0.00    +0.339 C 
BRANCH  21  22
ATOM     22  O   UNL     1      32.778 -22.299 -18.397  0.00  0.00    -0.477 OA
ATOM     23  H   UNL     1      32.472 -22.367 -19.280  0.00  0.00    +0.295 HD
ENDBRANCH  21  22
ENDBRANCH  15  21
ENDBRANCH   2  14
BRANCH   3  25
ATOM     24  O   UNL     1      37.865 -22.250 -15.537  0.00  0.00    -0.240 OA
ATOM     25  C   UNL     1      37.070 -22.470 -16.429  0.00  0.00    +0.393 C 
BRANCH  25  26
ATOM     26  O   UNL     1      37.328 -22.710 -17.722  0.00  0.00    -0.474 OA
ATOM     27  H   UNL     1      37.163 -22.046 -18.363  0.00  0.00    +0.296 HD
ENDBRANCH  25  26
ENDBRANCH   3  25
TORSDOF 6
ENDMDL
MODEL 5
REMARK VINA RESULT:      -6.1      2.408      5.017
REMARK  Name = 447411
REMARK  6 active torsions:
REMARK  status: ('A' for Active; 'I' for Inactive)
REMARK    1  A    between atoms: N_2  and  C_4
REMARK    2  A    between atoms: N_2  and  C_14
REMARK    3  A    between atoms: C_3  and  C_25
REMARK    4  A    between atoms: C_15  and  C_21
REMARK    5  A    between atoms: C_21  and  O_22
REMARK    6  A    between atoms: C_25  and  O_26
REMARK                            x       y       z     vdW  Elec       q    Type
REMARK                         _______ _______ _______ _____ _____    ______ ____
ROOT
ATOM      1  O   UNL     1      37.638 -24.996 -11.097  0.00  0.00    -0.262 OA
ATOM      2  N   UNL     1      36.988 -24.686 -13.358  0.00  0.00    -0.228 N 
ATOM      3  C   UNL     1      36.819 -24.651 -11.941  0.00  0.00    +0.332 C 
ENDROOT
BRANCH   2   4
ATOM      4  C   UNL     1      35.938 -24.310 -14.205  0.00  0.00    +0.059 C 
ATOM      5  C   UNL     1      36.142 -23.457 -15.302  0.00  0.00    +0.014 C 
ATOM      6  C   UNL     1      35.042 -23.111 -16.122  0.00  0.00    +0.001 C 
ATOM      7  C   UNL     1      34.668 -24.814 -13.920  0.00  0.00    +0.015 C 
ATOM      8  C   UNL     1      37.413 -22.940 -15.603  0.00  0.00    +0.001 C 
ATOM      9  C   UNL     1      33.770 -23.628 -15.822  0.00  0.00    +0.000 C 
ATOM     10  C   UNL     1      33.587 -24.474 -14.728  0.00  0.00    +0.001 C 
ATOM     11  C   UNL     1      35.244 -22.258 -17.219  0.00  0.00    +0.000 C 
ATOM     12  C   UNL     1      37.595 -22.094 -16.697  0.00  0.00    +0.000 C 
ATOM     13  C   UNL     1      36.514 -21.754 -17.504  0.00  0.00    +0.000 C 
ENDBRANCH   2   4
BRANCH   2  14
ATOM     14  C   UNL     1      38.264 -25.117 -13.915  0.00  0.00    +0.065 C 
ATOM     15  C   UNL     1      38.298 -26.238 -14.693  0.00  0.00    +0.089 C 
ATOM     16  C   UNL     1      39.357 -24.353 -13.614  0.00  0.00    +0.015 C 
ATOM     17  C   UNL     1      39.530 -26.632 -15.215  0.00  0.00    +0.008 C 
ATOM     18  C   UNL     1      40.589 -24.747 -14.136  0.00  0.00    +0.001 C 
ATOM     19  C   UNL     1      40.676 -25.885 -14.936  0.00  0.00    +0.000 C 
BRANCH  15  21
ATOM     20  O   UNL     1      36.616 -27.164 -16.120  0.00  0.00    -0.245 OA
ATOM     21  C   UNL     1      37.122 -27.041 -15.002  0.00  0.00    +0.339 C 
BRANCH  21  22
ATOM     22  O   UNL     1      36.618 -27.665 -13.903  0.00  0.00    -0.477 OA
ATOM     23  H   UNL     1      37.092 -28.370 -13.507  0.00  0.00    +0.295 HD
ENDBRANCH  21  22
ENDBRANCH  15  21
ENDBRANCH   2  14
BRANCH   3  25
ATOM     24  O   UNL     1      34.980 -23.154 -11.702  0.00  0.00    -0.240 OA
ATOM     25  C   UNL     1      35.499 -24.205 -11.383  0.00  0.00    +0.393 C 
BRANCH  25  26
ATOM     26  O   UNL     1      35.071 -25.092 -10.474  0.00  0.00    -0.474 OA
ATOM     27  H   UNL     1      35.387 -25.049  -9.592  0.00  0.00    +0.296 HD
ENDBRANCH  25  26
ENDBRANCH   3  25
TORSDOF 6
ENDMDL
MODEL 6
REMARK VINA RESULT:      -6.0      1.636      4.714
REMARK  Name = 447411
REMARK  6 active torsions:
REMARK  status: ('A' for Active; 'I' for Inactive)
REMARK    1  A    between atoms: N_2  and  C_4
REMARK    2  A    between atoms: N_2  and  C_14
REMARK    3  A    between atoms: C_3  and  C_25
REMARK    4  A    between atoms: C_15  and  C_21
REMARK    5  A    between atoms: C_21  and  O_22
REMARK    6  A    between atoms: C_25  and  O_26
REMARK                            x       y       z     vdW  Elec       q    Type
REMARK                         _______ _______ _______ _____ _____    ______ ____
ROOT
ATOM      1  O   UNL     1      34.583 -24.785 -11.752  0.00  0.00    -0.262 OA
ATOM      2  N   UNL     1      35.237 -24.228 -13.964  0.00  0.00    -0.228 N 
ATOM      3  C   UNL     1      34.320 -24.389 -12.882  0.00  0.00    +0.332 C 
ENDROOT
BRANCH   2   4
ATOM      4  C   UNL     1      34.780 -23.818 -15.222  0.00  0.00    +0.059 C 
ATOM      5  C   UNL     1      35.547 -22.983 -16.051  0.00  0.00    +0.014 C 
ATOM      6  C   UNL     1      35.032 -22.600 -17.313  0.00  0.00    +0.001 C 
ATOM      7  C   UNL     1      33.525 -24.270 -15.631  0.00  0.00    +0.015 C 
ATOM      8  C   UNL     1      36.812 -22.518 -15.656  0.00  0.00    +0.001 C 
ATOM      9  C   UNL     1      33.767 -23.065 -17.710  0.00  0.00    +0.000 C 
ATOM     10  C   UNL     1      33.019 -23.894 -16.873  0.00  0.00    +0.001 C 
ATOM     11  C   UNL     1      35.798 -21.765 -18.143  0.00  0.00    +0.000 C 
ATOM     12  C   UNL     1      37.558 -21.689 -16.493  0.00  0.00    +0.000 C 
ATOM     13  C   UNL     1      37.054 -21.313 -17.734  0.00  0.00    +0.000 C 
ENDBRANCH   2   4
BRANCH   2  14
ATOM     14  C   UNL     1      36.652 -24.494 -13.746  0.00  0.00    +0.065 C 
ATOM     15  C   UNL     1      37.199 -25.630 -14.273  0.00  0.00    +0.089 C 
ATOM     16  C   UNL     1      37.349 -23.572 -13.016  0.00  0.00    +0.015 C 
ATOM     17  C   UNL     1      38.556 -25.864 -14.052  0.00  0.00    +0.008 C 
ATOM     18  C   UNL     1      38.705 -23.806 -12.794  0.00  0.00    +0.001 C 
ATOM     19  C   UNL     1      39.309 -24.951 -13.312  0.00  0.00    +0.000 C 
BRANCH  15  21
ATOM     20  O   UNL     1      36.055 -26.448 -16.210  0.00  0.00    -0.245 OA
ATOM     21  C   UNL     1      36.440 -26.603 -15.048  0.00  0.00    +0.339 C 
BRANCH  21  22
ATOM     22  O   UNL     1      36.190 -27.741 -14.345  0.00  0.00    -0.477 OA
ATOM     23  H   UNL     1      36.493 -28.567 -14.669  0.00  0.00    +0.295 HD
ENDBRANCH  21  22
ENDBRANCH  15  21
ENDBRANCH   2  14
BRANCH   3  25
ATOM     24  O   UNL     1      32.405 -22.987 -13.101  0.00  0.00    -0.240 OA
ATOM     25  C   UNL     1      32.864 -24.111 -13.122  0.00  0.00    +0.393 C 
BRANCH  25  26
ATOM     26  O   UNL     1      32.204 -25.267 -13.280  0.00  0.00    -0.474 OA
ATOM     27  H   UNL     1      32.592 -26.071 -12.991  0.00  0.00    +0.296 HD
ENDBRANCH  25  26
ENDBRANCH   3  25
TORSDOF 6
ENDMDL
MODEL 7
REMARK VINA RESULT:      -5.8     14.089     17.556
REMARK  Name = 447411
REMARK  6 active torsions:
REMARK  status: ('A' for Active; 'I' for Inactive)
REMARK    1  A    between atoms: N_2  and  C_4
REMARK    2  A    between atoms: N_2  and  C_14
REMARK    3  A    between atoms: C_3  and  C_25
REMARK    4  A    between atoms: C_15  and  C_21
REMARK    5  A    between atoms: C_21  and  O_22
REMARK    6  A    between atoms: C_25  and  O_26
REMARK                            x       y       z     vdW  Elec       q    Type
REMARK                         _______ _______ _______ _____ _____    ______ ____
ROOT
ATOM      1  O   UNL     1      32.944  -9.680 -19.945  0.00  0.00    -0.262 OA
ATOM      2  N   UNL     1      32.396  -9.216 -22.207  0.00  0.00    -0.228 N 
ATOM      3  C   UNL     1      32.604  -8.902 -20.829  0.00  0.00    +0.332 C 
ENDROOT
BRANCH   2   4
ATOM      4  C   UNL     1      31.952  -8.230 -23.096  0.00  0.00    +0.059 C 
ATOM      5  C   UNL     1      32.848  -7.463 -23.858  0.00  0.00    +0.014 C 
ATOM      6  C   UNL     1      32.340  -6.479 -24.741  0.00  0.00    +0.001 C 
ATOM      7  C   UNL     1      30.574  -8.032 -23.203  0.00  0.00    +0.015 C 
ATOM      8  C   UNL     1      34.237  -7.649 -23.763  0.00  0.00    +0.001 C 
ATOM      9  C   UNL     1      30.951  -6.294 -24.837  0.00  0.00    +0.000 C 
ATOM     10  C   UNL     1      30.075  -7.065 -24.072  0.00  0.00    +0.001 C 
ATOM     11  C   UNL     1      33.236  -5.712 -25.502  0.00  0.00    +0.000 C 
ATOM     12  C   UNL     1      35.112  -6.877 -24.527  0.00  0.00    +0.000 C 
ATOM     13  C   UNL     1      34.613  -5.911 -25.396  0.00  0.00    +0.000 C 
ENDBRANCH   2   4
BRANCH   2  14
ATOM     14  C   UNL     1      32.651 -10.570 -22.677  0.00  0.00    +0.065 C 
ATOM     15  C   UNL     1      31.975 -11.607 -22.099  0.00  0.00    +0.089 C 
ATOM     16  C   UNL     1      33.565 -10.713 -23.683  0.00  0.00    +0.015 C 
ATOM     17  C   UNL     1      32.236 -12.896 -22.565  0.00  0.00    +0.008 C 
ATOM     18  C   UNL     1      33.825 -12.001 -24.149  0.00  0.00    +0.001 C 
ATOM     19  C   UNL     1      33.161 -13.092 -23.591  0.00  0.00    +0.000 C 
BRANCH  15  21
ATOM     20  O   UNL     1      29.892 -10.918 -21.144  0.00  0.00    -0.245 OA
ATOM     21  C   UNL     1      31.005 -11.437 -21.025  0.00  0.00    +0.339 C 
BRANCH  21  22
ATOM     22  O   UNL     1      31.457 -11.923 -19.838  0.00  0.00    -0.477 OA
ATOM     23  H   UNL     1      31.447 -12.847 -19.676  0.00  0.00    +0.295 HD
ENDBRANCH  21  22
ENDBRANCH  15  21
ENDBRANCH   2  14
BRANCH   3  25
ATOM     24  O   UNL     1      31.393  -6.851 -20.762  0.00  0.00    -0.240 OA
ATOM     25  C   UNL     1      32.336  -7.502 -20.360  0.00  0.00    +0.393 C 
BRANCH  25  26
ATOM     26  O   UNL     1      33.312  -7.111 -19.528  0.00  0.00    -0.474 OA
ATOM     27  H   UNL     1      33.896  -7.746 -19.161  0.00  0.00    +0.296 HD
ENDBRANCH  25  26
ENDBRANCH   3  25
TORSDOF 6
ENDMDL
MODEL 8
REMARK VINA RESULT:      -5.3      7.023      9.871
REMARK  Name = 447411
REMARK  6 active torsions:
REMARK  status: ('A' for Active; 'I' for Inactive)
REMARK    1  A    between atoms: N_2  and  C_4
REMARK    2  A    between atoms: N_2  and  C_14
REMARK    3  A    between atoms: C_3  and  C_25
REMARK    4  A    between atoms: C_15  and  C_21
REMARK    5  A    between atoms: C_21  and  O_22
REMARK    6  A    between atoms: C_25  and  O_26
REMARK                            x       y       z     vdW  Elec       q    Type
REMARK                         _______ _______ _______ _____ _____    ______ ____
ROOT
ATOM      1  O   UNL     1      33.259 -16.990 -24.652  0.00  0.00    -0.262 OA
ATOM      2  N   UNL     1      34.270 -17.449 -22.554  0.00  0.00    -0.228 N 
ATOM      3  C   UNL     1      33.997 -17.661 -23.940  0.00  0.00    +0.332 C 
ENDROOT
BRANCH   2   4
ATOM      4  C   UNL     1      35.096 -18.335 -21.853  0.00  0.00    +0.059 C 
ATOM      5  C   UNL     1      34.569 -19.384 -21.081  0.00  0.00    +0.014 C 
ATOM      6  C   UNL     1      35.454 -20.248 -20.393  0.00  0.00    +0.001 C 
ATOM      7  C   UNL     1      36.475 -18.141 -21.946  0.00  0.00    +0.015 C 
ATOM      8  C   UNL     1      33.185 -19.593 -20.976  0.00  0.00    +0.001 C 
ATOM      9  C   UNL     1      36.840 -20.040 -20.498  0.00  0.00    +0.000 C 
ATOM     10  C   UNL     1      37.345 -18.992 -21.270  0.00  0.00    +0.001 C 
ATOM     11  C   UNL     1      34.929 -21.296 -19.621  0.00  0.00    +0.000 C 
ATOM     12  C   UNL     1      32.680 -20.640 -20.204  0.00  0.00    +0.000 C 
ATOM     13  C   UNL     1      33.550 -21.490 -19.528  0.00  0.00    +0.000 C 
ENDBRANCH   2   4
BRANCH   2  14
ATOM     14  C   UNL     1      33.681 -16.301 -21.878  0.00  0.00    +0.065 C 
ATOM     15  C   UNL     1      33.829 -15.062 -22.433  0.00  0.00    +0.089 C 
ATOM     16  C   UNL     1      33.007 -16.548 -20.715  0.00  0.00    +0.015 C 
ATOM     17  C   UNL     1      33.256 -13.977 -21.769  0.00  0.00    +0.008 C 
ATOM     18  C   UNL     1      32.434 -15.464 -20.051  0.00  0.00    +0.001 C 
ATOM     19  C   UNL     1      32.559 -14.179 -20.578  0.00  0.00    +0.000 C 
BRANCH  15  21
ATOM     20  O   UNL     1      35.657 -15.286 -23.961  0.00  0.00    -0.245 OA
ATOM     21  C   UNL     1      34.552 -14.816 -23.674  0.00  0.00    +0.339 C 
BRANCH  21  22
ATOM     22  O   UNL     1      33.870 -13.995 -24.517  0.00  0.00    -0.477 OA
ATOM     23  H   UNL     1      33.246 -14.354 -25.117  0.00  0.00    +0.295 HD
ENDBRANCH  21  22
ENDBRANCH  15  21
ENDBRANCH   2  14
BRANCH   3  25
ATOM     24  O   UNL     1      34.772 -19.912 -24.058  0.00  0.00    -0.240 OA
ATOM     25  C   UNL     1      34.612 -18.848 -24.623  0.00  0.00    +0.393 C 
BRANCH  25  26
ATOM     26  O   UNL     1      34.989 -18.510 -25.863  0.00  0.00    -0.474 OA
ATOM     27  H   UNL     1      35.122 -17.608 -26.082  0.00  0.00    +0.296 HD
ENDBRANCH  25  26
ENDBRANCH   3  25
TORSDOF 6
ENDMDL
MODEL 9
REMARK VINA RESULT:      -5.3     15.328     17.556
REMARK  Name = 447411
REMARK  6 active torsions:
REMARK  status: ('A' for Active; 'I' for Inactive)
REMARK    1  A    between atoms: N_2  and  C_4
REMARK    2  A    between atoms: N_2  and  C_14
REMARK    3  A    between atoms: C_3  and  C_25
REMARK    4  A    between atoms: C_15  and  C_21
REMARK    5  A    between atoms: C_21  and  O_22
REMARK    6  A    between atoms: C_25  and  O_26
REMARK                            x       y       z     vdW  Elec       q    Type
REMARK                         _______ _______ _______ _____ _____    ______ ____
ROOT
ATOM      1  O   UNL     1      31.501  -7.225 -25.260  0.00  0.00    -0.262 OA
ATOM      2  N   UNL     1      32.369  -8.200 -23.278  0.00  0.00    -0.228 N 
ATOM      3  C   UNL     1      31.547  -7.314 -24.038  0.00  0.00    +0.332 C 
ENDROOT
BRANCH   2   4
ATOM      4  C   UNL     1      32.356  -8.150 -21.879  0.00  0.00    +0.059 C 
ATOM      5  C   UNL     1      31.959  -9.252 -21.103  0.00  0.00    +0.014 C 
ATOM      6  C   UNL     1      31.966  -9.142 -19.692  0.00  0.00    +0.001 C 
ATOM      7  C   UNL     1      32.754  -6.958 -21.272  0.00  0.00    +0.015 C 
ATOM      8  C   UNL     1      31.556 -10.459 -21.697  0.00  0.00    +0.001 C 
ATOM      9  C   UNL     1      32.370  -7.935 -19.098  0.00  0.00    +0.000 C 
ATOM     10  C   UNL     1      32.761  -6.851 -19.884  0.00  0.00    +0.001 C 
ATOM     11  C   UNL     1      31.569 -10.243 -18.916  0.00  0.00    +0.000 C 
ATOM     12  C   UNL     1      31.165 -11.542 -20.910  0.00  0.00    +0.000 C 
ATOM     13  C   UNL     1      31.171 -11.436 -19.522  0.00  0.00    +0.000 C 
ENDBRANCH   2   4
BRANCH   2  14
ATOM     14  C   UNL     1      33.221  -9.156 -23.972  0.00  0.00    +0.065 C 
ATOM     15  C   UNL     1      34.460  -8.757 -24.385  0.00  0.00    +0.089 C 
ATOM     16  C   UNL     1      32.711 -10.410 -24.166  0.00  0.00    +0.015 C 
ATOM     17  C   UNL     1      35.258  -9.690 -25.048  0.00  0.00    +0.008 C 
ATOM     18  C   UNL     1      33.509 -11.342 -24.829  0.00  0.00    +0.001 C 
ATOM     19  C   UNL     1      34.782 -10.982 -25.269  0.00  0.00    +0.000 C 
BRANCH  15  21
ATOM     20  O   UNL     1      34.857  -6.466 -24.948  0.00  0.00    -0.245 OA
ATOM     21  C   UNL     1      34.987  -7.416 -24.171  0.00  0.00    +0.339 C 
BRANCH  21  22
ATOM     22  O   UNL     1      35.655  -7.304 -22.992  0.00  0.00    -0.477 OA
ATOM     23  H   UNL     1      35.642  -6.493 -22.521  0.00  0.00    +0.295 HD
ENDBRANCH  21  22
ENDBRANCH  15  21
ENDBRANCH   2  14
BRANCH   3  25
ATOM     24  O   UNL     1      29.751  -6.686 -22.603  0.00  0.00    -0.240 OA
ATOM     25  C   UNL     1      30.675  -6.334 -23.308  0.00  0.00    +0.393 C 
BRANCH  25  26
ATOM     26  O   UNL     1      31.042  -5.083 -23.621  0.00  0.00    -0.474 OA
ATOM     27  H   UNL     1      31.488  -4.915 -24.428  0.00  0.00    +0.296 HD
ENDBRANCH  25  26
ENDBRANCH   3  25
TORSDOF 6
ENDMDL
