MODEL 1
REMARK VINA RESULT:      -2.8      0.000      0.000
REMARK  Name = 183145
REMARK  0 active torsions:
REMARK  status: ('A' for Active; 'I' for Inactive)
REMARK                            x       y       z     vdW  Elec       q    Type
REMARK                         _______ _______ _______ _____ _____    ______ ____
ROOT
ATOM      1  P   UNL     1      40.213 -25.713 -14.545  0.00  0.00    +0.330 P 
ATOM      2  O   UNL     1      41.239 -26.793 -13.813  0.00  0.00    -0.165 OA
ATOM      3  O   UNL     1      40.587 -25.988 -15.930  0.00  0.00    -0.165 OA
ENDROOT
TORSDOF 0
ENDMDL
MODEL 2
REMARK VINA RESULT:      -2.8     13.441     13.674
REMARK  Name = 183145
REMARK  0 active torsions:
REMARK  status: ('A' for Active; 'I' for Inactive)
REMARK                            x       y       z     vdW  Elec       q    Type
REMARK                         _______ _______ _______ _____ _____    ______ ____
ROOT
ATOM      1  P   UNL     1      28.094 -22.753 -16.516  0.00  0.00    +0.330 P 
ATOM      2  O   UNL     1      27.647 -23.897 -17.633  0.00  0.00    -0.165 OA
ATOM      3  O   UNL     1      27.435 -21.603 -17.132  0.00  0.00    -0.165 OA
ENDROOT
TORSDOF 0
ENDMDL
MODEL 3
REMARK VINA RESULT:      -2.8     13.401     13.636
REMARK  Name = 183145
REMARK  0 active torsions:
REMARK  status: ('A' for Active; 'I' for Inactive)
REMARK                            x       y       z     vdW  Elec       q    Type
REMARK                         _______ _______ _______ _____ _____    ______ ____
ROOT
ATOM      1  P   UNL     1      28.245 -23.025 -16.694  0.00  0.00    +0.330 P 
ATOM      2  O   UNL     1      27.469 -21.630 -17.151  0.00  0.00    -0.165 OA
ATOM      3  O   UNL     1      27.624 -23.926 -17.661  0.00  0.00    -0.165 OA
ENDROOT
TORSDOF 0
ENDMDL
MODEL 4
REMARK VINA RESULT:      -2.7      3.481      3.933
REMARK  Name = 183145
REMARK  0 active torsions:
REMARK  status: ('A' for Active; 'I' for Inactive)
REMARK                            x       y       z     vdW  Elec       q    Type
REMARK                         _______ _______ _______ _____ _____    ______ ____
ROOT
ATOM      1  P   UNL     1      37.036 -26.549 -14.952  0.00  0.00    +0.330 P 
ATOM      2  O   UNL     1      36.686 -27.409 -16.328  0.00  0.00    -0.165 OA
ATOM      3  O   UNL     1      38.337 -27.149 -14.666  0.00  0.00    -0.165 OA
ENDROOT
TORSDOF 0
ENDMDL
MODEL 5
REMARK VINA RESULT:      -2.7      6.188      6.331
REMARK  Name = 183145
REMARK  0 active torsions:
REMARK  status: ('A' for Active; 'I' for Inactive)
REMARK                            x       y       z     vdW  Elec       q    Type
REMARK                         _______ _______ _______ _____ _____    ______ ____
ROOT
ATOM      1  P   UNL     1      36.459 -23.785 -11.413  0.00  0.00    +0.330 P 
ATOM      2  O   UNL     1      36.110 -24.197  -9.843  0.00  0.00    -0.165 OA
ATOM      3  O   UNL     1      37.414 -22.715 -11.132  0.00  0.00    -0.165 OA
ENDROOT
TORSDOF 0
ENDMDL
MODEL 6
REMARK VINA RESULT:      -2.7      5.984      6.240
REMARK  Name = 183145
REMARK  0 active torsions:
REMARK  status: ('A' for Active; 'I' for Inactive)
REMARK                            x       y       z     vdW  Elec       q    Type
REMARK                         _______ _______ _______ _____ _____    ______ ____
ROOT
ATOM      1  P   UNL     1      35.853 -24.313 -11.538  0.00  0.00    +0.330 P 
ATOM      2  O   UNL     1      37.448 -24.364 -11.081  0.00  0.00    -0.165 OA
ATOM      3  O   UNL     1      35.300 -25.082 -10.426  0.00  0.00    -0.165 OA
ENDROOT
TORSDOF 0
ENDMDL
MODEL 7
REMARK VINA RESULT:      -2.7      6.016      6.237
REMARK  Name = 183145
REMARK  0 active torsions:
REMARK  status: ('A' for Active; 'I' for Inactive)
REMARK                            x       y       z     vdW  Elec       q    Type
REMARK                         _______ _______ _______ _____ _____    ______ ____
ROOT
ATOM      1  P   UNL     1      35.987 -24.214 -11.544  0.00  0.00    +0.330 P 
ATOM      2  O   UNL     1      35.272 -25.093 -10.331  0.00  0.00    -0.165 OA
ATOM      3  O   UNL     1      37.364 -24.290 -11.062  0.00  0.00    -0.165 OA
ENDROOT
TORSDOF 0
ENDMDL
MODEL 8
REMARK VINA RESULT:      -2.5     22.083     22.164
REMARK  Name = 183145
REMARK  0 active torsions:
REMARK  status: ('A' for Active; 'I' for Inactive)
REMARK                            x       y       z     vdW  Elec       q    Type
REMARK                         _______ _______ _______ _____ _____    ______ ____
ROOT
ATOM      1  P   UNL     1      37.543  -4.510  -9.593  0.00  0.00    +0.330 P 
ATOM      2  O   UNL     1      37.349  -5.672  -8.424  0.00  0.00    -0.165 OA
ATOM      3  O   UNL     1      36.285  -4.728 -10.303  0.00  0.00    -0.165 OA
ENDROOT
TORSDOF 0
ENDMDL
MODEL 9
REMARK VINA RESULT:      -2.5     14.524     14.630
REMARK  Name = 183145
REMARK  0 active torsions:
REMARK  status: ('A' for Active; 'I' for Inactive)
REMARK                            x       y       z     vdW  Elec       q    Type
REMARK                         _______ _______ _______ _____ _____    ______ ____
ROOT
ATOM      1  P   UNL     1      27.465 -22.393 -16.377  0.00  0.00    +0.330 P 
ATOM      2  O   UNL     1      26.994 -21.289 -17.524  0.00  0.00    -0.165 OA
ATOM      3  O   UNL     1      26.291 -22.296 -15.512  0.00  0.00    -0.165 OA
ENDROOT
TORSDOF 0
ENDMDL
