MODEL 1
REMARK VINA RESULT:      -4.8      0.000      0.000
REMARK  Name = 1549093
REMARK  1 active torsions:
REMARK  status: ('A' for Active; 'I' for Inactive)
REMARK    1  A    between atoms: C_1  and  N_7
REMARK                            x       y       z     vdW  Elec       q    Type
REMARK                         _______ _______ _______ _____ _____    ______ ____
ROOT
ATOM      1  C   UNL     1      35.389 -19.575 -21.359  0.00  0.00    -0.066 C 
ATOM      2  C   UNL     1      35.867 -20.828 -20.623  0.00  0.00    -0.022 C 
ATOM      3  C   UNL     1      33.893 -19.620 -21.665  0.00  0.00    -0.022 C 
ATOM      4  C   UNL     1      35.006 -21.177 -19.410  0.00  0.00    -0.002 C 
ATOM      5  C   UNL     1      33.040 -19.973 -20.447  0.00  0.00    -0.002 C 
ATOM      6  C   UNL     1      33.525 -21.252 -19.771  0.00  0.00    -0.000 C 
ENDROOT
BRANCH   1   7
ATOM      7  N   UNL     1      35.685 -18.374 -20.525  0.00  0.00    +0.382 N 
ATOM      8  H   UNL     1      34.815 -17.886 -20.311  0.00  0.00    -0.089 HD
ATOM      9  H   UNL     1      36.309 -17.750 -21.036  0.00  0.00    -0.089 HD
ATOM     10  H   UNL     1      36.133 -18.666 -19.656  0.00  0.00    -0.089 HD
ENDBRANCH   1   7
TORSDOF 1
ENDMDL
MODEL 2
REMARK VINA RESULT:      -4.7      1.270      2.276
REMARK  Name = 1549093
REMARK  1 active torsions:
REMARK  status: ('A' for Active; 'I' for Inactive)
REMARK    1  A    between atoms: C_1  and  N_7
REMARK                            x       y       z     vdW  Elec       q    Type
REMARK                         _______ _______ _______ _____ _____    ______ ____
ROOT
ATOM      1  C   UNL     1      34.823 -18.855 -21.557  0.00  0.00    -0.066 C 
ATOM      2  C   UNL     1      33.466 -19.083 -20.889  0.00  0.00    -0.022 C 
ATOM      3  C   UNL     1      35.971 -19.479 -20.763  0.00  0.00    -0.022 C 
ATOM      4  C   UNL     1      33.222 -20.543 -20.509  0.00  0.00    -0.002 C 
ATOM      5  C   UNL     1      35.716 -20.938 -20.384  0.00  0.00    -0.002 C 
ATOM      6  C   UNL     1      34.372 -21.112 -19.683  0.00  0.00    -0.000 C 
ENDROOT
BRANCH   1   7
ATOM      7  N   UNL     1      34.799 -19.440 -22.929  0.00  0.00    +0.382 N 
ATOM      8  H   UNL     1      33.832 -19.597 -23.215  0.00  0.00    -0.089 HD
ATOM      9  H   UNL     1      35.303 -20.327 -22.930  0.00  0.00    -0.089 HD
ATOM     10  H   UNL     1      35.246 -18.795 -23.581  0.00  0.00    -0.089 HD
ENDBRANCH   1   7
TORSDOF 1
ENDMDL
MODEL 3
REMARK VINA RESULT:      -4.6      2.378      3.882
REMARK  Name = 1549093
REMARK  1 active torsions:
REMARK  status: ('A' for Active; 'I' for Inactive)
REMARK    1  A    between atoms: C_1  and  N_7
REMARK                            x       y       z     vdW  Elec       q    Type
REMARK                         _______ _______ _______ _____ _____    ______ ____
ROOT
ATOM      1  C   UNL     1      34.665 -18.405 -21.227  0.00  0.00    -0.066 C 
ATOM      2  C   UNL     1      34.452 -16.931 -21.578  0.00  0.00    -0.022 C 
ATOM      3  C   UNL     1      34.411 -19.326 -22.420  0.00  0.00    -0.022 C 
ATOM      4  C   UNL     1      35.189 -16.504 -22.847  0.00  0.00    -0.002 C 
ATOM      5  C   UNL     1      35.149 -18.888 -23.686  0.00  0.00    -0.002 C 
ATOM      6  C   UNL     1      34.874 -17.426 -24.021  0.00  0.00    -0.000 C 
ENDROOT
BRANCH   1   7
ATOM      7  N   UNL     1      36.064 -18.597 -20.746  0.00  0.00    +0.382 N 
ATOM      8  H   UNL     1      36.488 -19.383 -21.239  0.00  0.00    -0.089 HD
ATOM      9  H   UNL     1      36.056 -18.788 -19.744  0.00  0.00    -0.089 HD
ATOM     10  H   UNL     1      36.605 -17.751 -20.927  0.00  0.00    -0.089 HD
ENDBRANCH   1   7
TORSDOF 1
ENDMDL
MODEL 4
REMARK VINA RESULT:      -4.6      1.426      2.052
REMARK  Name = 1549093
REMARK  1 active torsions:
REMARK  status: ('A' for Active; 'I' for Inactive)
REMARK    1  A    between atoms: C_1  and  N_7
REMARK                            x       y       z     vdW  Elec       q    Type
REMARK                         _______ _______ _______ _____ _____    ______ ____
ROOT
ATOM      1  C   UNL     1      35.920 -21.478 -19.965  0.00  0.00    -0.066 C 
ATOM      2  C   UNL     1      34.711 -22.336 -19.589  0.00  0.00    -0.022 C 
ATOM      3  C   UNL     1      35.577 -20.422 -21.016  0.00  0.00    -0.022 C 
ATOM      4  C   UNL     1      33.473 -21.509 -19.242  0.00  0.00    -0.002 C 
ATOM      5  C   UNL     1      34.336 -19.603 -20.661  0.00  0.00    -0.002 C 
ATOM      6  C   UNL     1      33.144 -20.499 -20.336  0.00  0.00    -0.000 C 
ENDROOT
BRANCH   1   7
ATOM      7  N   UNL     1      36.442 -20.802 -18.741  0.00  0.00    +0.382 N 
ATOM      8  H   UNL     1      36.546 -21.488 -17.993  0.00  0.00    -0.089 HD
ATOM      9  H   UNL     1      35.788 -20.076 -18.449  0.00  0.00    -0.089 HD
ATOM     10  H   UNL     1      37.348 -20.382 -18.945  0.00  0.00    -0.089 HD
ENDBRANCH   1   7
TORSDOF 1
ENDMDL
MODEL 5
REMARK VINA RESULT:      -4.5      2.184      2.973
REMARK  Name = 1549093
REMARK  1 active torsions:
REMARK  status: ('A' for Active; 'I' for Inactive)
REMARK    1  A    between atoms: C_1  and  N_7
REMARK                            x       y       z     vdW  Elec       q    Type
REMARK                         _______ _______ _______ _____ _____    ______ ____
ROOT
ATOM      1  C   UNL     1      33.971 -22.160 -18.908  0.00  0.00    -0.066 C 
ATOM      2  C   UNL     1      35.439 -21.733 -18.898  0.00  0.00    -0.022 C 
ATOM      3  C   UNL     1      33.047 -21.048 -19.404  0.00  0.00    -0.022 C 
ATOM      4  C   UNL     1      35.891 -21.108 -20.217  0.00  0.00    -0.002 C 
ATOM      5  C   UNL     1      33.509 -20.427 -20.722  0.00  0.00    -0.002 C 
ATOM      6  C   UNL     1      34.965 -19.976 -20.653  0.00  0.00    -0.000 C 
ENDROOT
BRANCH   1   7
ATOM      7  N   UNL     1      33.814 -23.358 -19.784  0.00  0.00    +0.382 N 
ATOM      8  H   UNL     1      33.099 -23.172 -20.488  0.00  0.00    -0.089 HD
ATOM      9  H   UNL     1      33.536 -24.160 -19.218  0.00  0.00    -0.089 HD
ATOM     10  H   UNL     1      34.701 -23.558 -20.246  0.00  0.00    -0.089 HD
ENDBRANCH   1   7
TORSDOF 1
ENDMDL
MODEL 6
REMARK VINA RESULT:      -4.4      3.032      4.493
REMARK  Name = 1549093
REMARK  1 active torsions:
REMARK  status: ('A' for Active; 'I' for Inactive)
REMARK    1  A    between atoms: C_1  and  N_7
REMARK                            x       y       z     vdW  Elec       q    Type
REMARK                         _______ _______ _______ _____ _____    ______ ____
ROOT
ATOM      1  C   UNL     1      35.316 -17.961 -22.389  0.00  0.00    -0.066 C 
ATOM      2  C   UNL     1      34.898 -16.680 -23.114  0.00  0.00    -0.022 C 
ATOM      3  C   UNL     1      34.610 -19.197 -22.946  0.00  0.00    -0.022 C 
ATOM      4  C   UNL     1      34.982 -16.797 -24.635  0.00  0.00    -0.002 C 
ATOM      5  C   UNL     1      34.696 -19.304 -24.469  0.00  0.00    -0.002 C 
ATOM      6  C   UNL     1      34.230 -18.021 -25.150  0.00  0.00    -0.000 C 
ENDROOT
BRANCH   1   7
ATOM      7  N   UNL     1      36.791 -18.138 -22.516  0.00  0.00    +0.382 N 
ATOM      8  H   UNL     1      37.202 -17.291 -22.910  0.00  0.00    -0.089 HD
ATOM      9  H   UNL     1      36.988 -18.930 -23.129  0.00  0.00    -0.089 HD
ATOM     10  H   UNL     1      37.193 -18.313 -21.595  0.00  0.00    -0.089 HD
ENDBRANCH   1   7
TORSDOF 1
ENDMDL
MODEL 7
REMARK VINA RESULT:      -4.4      3.527      4.504
REMARK  Name = 1549093
REMARK  1 active torsions:
REMARK  status: ('A' for Active; 'I' for Inactive)
REMARK    1  A    between atoms: C_1  and  N_7
REMARK                            x       y       z     vdW  Elec       q    Type
REMARK                         _______ _______ _______ _____ _____    ______ ____
ROOT
ATOM      1  C   UNL     1      34.982 -16.184 -23.619  0.00  0.00    -0.066 C 
ATOM      2  C   UNL     1      35.492 -17.203 -22.598  0.00  0.00    -0.022 C 
ATOM      3  C   UNL     1      34.920 -16.763 -25.032  0.00  0.00    -0.022 C 
ATOM      4  C   UNL     1      34.765 -18.545 -22.676  0.00  0.00    -0.002 C 
ATOM      5  C   UNL     1      34.195 -18.107 -25.099  0.00  0.00    -0.002 C 
ATOM      6  C   UNL     1      34.764 -19.105 -24.095  0.00  0.00    -0.000 C 
ENDROOT
BRANCH   1   7
ATOM      7  N   UNL     1      33.622 -15.723 -23.215  0.00  0.00    +0.382 N 
ATOM      8  H   UNL     1      33.220 -15.157 -23.963  0.00  0.00    -0.089 HD
ATOM      9  H   UNL     1      33.690 -15.165 -22.364  0.00  0.00    -0.089 HD
ATOM     10  H   UNL     1      33.026 -16.533 -23.045  0.00  0.00    -0.089 HD
ENDBRANCH   1   7
TORSDOF 1
ENDMDL
MODEL 8
REMARK VINA RESULT:      -4.3      4.727      5.654
REMARK  Name = 1549093
REMARK  1 active torsions:
REMARK  status: ('A' for Active; 'I' for Inactive)
REMARK    1  A    between atoms: C_1  and  N_7
REMARK                            x       y       z     vdW  Elec       q    Type
REMARK                         _______ _______ _______ _____ _____    ______ ____
ROOT
ATOM      1  C   UNL     1      33.246 -14.468 -23.104  0.00  0.00    -0.066 C 
ATOM      2  C   UNL     1      33.909 -15.745 -23.623  0.00  0.00    -0.022 C 
ATOM      3  C   UNL     1      32.893 -14.561 -21.620  0.00  0.00    -0.022 C 
ATOM      4  C   UNL     1      35.071 -16.215 -22.748  0.00  0.00    -0.002 C 
ATOM      5  C   UNL     1      34.060 -15.036 -20.754  0.00  0.00    -0.002 C 
ATOM      6  C   UNL     1      34.662 -16.334 -21.283  0.00  0.00    -0.000 C 
ENDROOT
BRANCH   1   7
ATOM      7  N   UNL     1      34.167 -13.314 -23.320  0.00  0.00    +0.382 N 
ATOM      8  H   UNL     1      33.860 -12.524 -22.752  0.00  0.00    -0.089 HD
ATOM      9  H   UNL     1      34.157 -13.050 -24.305  0.00  0.00    -0.089 HD
ATOM     10  H   UNL     1      35.113 -13.580 -23.049  0.00  0.00    -0.089 HD
ENDBRANCH   1   7
TORSDOF 1
ENDMDL
MODEL 9
REMARK VINA RESULT:      -4.3      7.996      8.832
REMARK  Name = 1549093
REMARK  1 active torsions:
REMARK  status: ('A' for Active; 'I' for Inactive)
REMARK    1  A    between atoms: C_1  and  N_7
REMARK                            x       y       z     vdW  Elec       q    Type
REMARK                         _______ _______ _______ _____ _____    ______ ____
ROOT
ATOM      1  C   UNL     1      30.127 -25.441 -14.959  0.00  0.00    -0.066 C 
ATOM      2  C   UNL     1      30.069 -24.426 -16.102  0.00  0.00    -0.022 C 
ATOM      3  C   UNL     1      31.220 -25.107 -13.943  0.00  0.00    -0.022 C 
ATOM      4  C   UNL     1      30.028 -22.978 -15.617  0.00  0.00    -0.002 C 
ATOM      5  C   UNL     1      31.173 -23.655 -13.467  0.00  0.00    -0.002 C 
ATOM      6  C   UNL     1      31.160 -22.678 -14.638  0.00  0.00    -0.000 C 
ENDROOT
BRANCH   1   7
ATOM      7  N   UNL     1      28.806 -25.477 -14.267  0.00  0.00    +0.382 N 
ATOM      8  H   UNL     1      28.542 -26.446 -14.089  0.00  0.00    -0.089 HD
ATOM      9  H   UNL     1      28.101 -25.035 -14.856  0.00  0.00    -0.089 HD
ATOM     10  H   UNL     1      28.873 -24.975 -13.382  0.00  0.00    -0.089 HD
ENDBRANCH   1   7
TORSDOF 1
ENDMDL
