MODEL 1
REMARK VINA RESULT:      -7.2      0.000      0.000
REMARK  Name = 323
REMARK  0 active torsions:
REMARK  status: ('A' for Active; 'I' for Inactive)
REMARK                            x       y       z     vdW  Elec       q    Type
REMARK                         _______ _______ _______ _____ _____    ______ ____
ROOT
ATOM      1  O   UNL     1      35.750 -21.445 -19.219  0.00  0.00    -0.421 OA
ATOM      2  O   UNL     1      34.815 -23.062 -17.894  0.00  0.00    -0.244 OA
ATOM      3  C   UNL     1      34.301 -20.071 -20.611  0.00  0.00    +0.035 C 
ATOM      4  C   UNL     1      35.574 -20.409 -20.160  0.00  0.00    +0.149 C 
ATOM      5  C   UNL     1      34.167 -19.039 -21.543  0.00  0.00    +0.003 C 
ATOM      6  C   UNL     1      33.157 -20.805 -20.096  0.00  0.00    +0.010 C 
ATOM      7  C   UNL     1      36.712 -19.746 -20.613  0.00  0.00    +0.038 C 
ATOM      8  C   UNL     1      35.300 -18.365 -22.007  0.00  0.00    +0.000 C 
ATOM      9  C   UNL     1      36.570 -18.717 -21.543  0.00  0.00    +0.003 C 
ATOM     10  C   UNL     1      33.333 -21.784 -19.206  0.00  0.00    +0.082 C 
ATOM     11  C   UNL     1      34.670 -22.161 -18.712  0.00  0.00    +0.346 C 
ENDROOT
TORSDOF 0
ENDMDL
MODEL 2
REMARK VINA RESULT:      -7.2      1.211      2.134
REMARK  Name = 323
REMARK  0 active torsions:
REMARK  status: ('A' for Active; 'I' for Inactive)
REMARK                            x       y       z     vdW  Elec       q    Type
REMARK                         _______ _______ _______ _____ _____    ______ ____
ROOT
ATOM      1  O   UNL     1      33.124 -21.022 -19.755  0.00  0.00    -0.421 OA
ATOM      2  O   UNL     1      32.571 -22.741 -18.348  0.00  0.00    -0.244 OA
ATOM      3  C   UNL     1      35.473 -20.487 -20.105  0.00  0.00    +0.035 C 
ATOM      4  C   UNL     1      34.127 -20.241 -20.365  0.00  0.00    +0.149 C 
ATOM      5  C   UNL     1      36.438 -19.692 -20.728  0.00  0.00    +0.003 C 
ATOM      6  C   UNL     1      35.825 -21.564 -19.194  0.00  0.00    +0.010 C 
ATOM      7  C   UNL     1      33.722 -19.224 -21.228  0.00  0.00    +0.038 C 
ATOM      8  C   UNL     1      36.046 -18.669 -21.595  0.00  0.00    +0.000 C 
ATOM      9  C   UNL     1      34.691 -18.436 -21.845  0.00  0.00    +0.003 C 
ATOM     10  C   UNL     1      34.868 -22.299 -18.622  0.00  0.00    +0.082 C 
ATOM     11  C   UNL     1      33.437 -22.058 -18.881  0.00  0.00    +0.346 C 
ENDROOT
TORSDOF 0
ENDMDL
MODEL 3
REMARK VINA RESULT:      -7.2      2.107      4.464
REMARK  Name = 323
REMARK  0 active torsions:
REMARK  status: ('A' for Active; 'I' for Inactive)
REMARK                            x       y       z     vdW  Elec       q    Type
REMARK                         _______ _______ _______ _____ _____    ______ ____
ROOT
ATOM      1  O   UNL     1      33.896 -18.916 -21.428  0.00  0.00    -0.421 OA
ATOM      2  O   UNL     1      34.606 -17.158 -22.713  0.00  0.00    -0.244 OA
ATOM      3  C   UNL     1      35.549 -20.305 -20.304  0.00  0.00    +0.035 C 
ATOM      4  C   UNL     1      34.220 -20.006 -20.594  0.00  0.00    +0.149 C 
ATOM      5  C   UNL     1      35.831 -21.393 -19.474  0.00  0.00    +0.003 C 
ATOM      6  C   UNL     1      36.595 -19.475 -20.877  0.00  0.00    +0.010 C 
ATOM      7  C   UNL     1      33.170 -20.761 -20.077  0.00  0.00    +0.038 C 
ATOM      8  C   UNL     1      34.787 -22.159 -18.949  0.00  0.00    +0.000 C 
ATOM      9  C   UNL     1      33.460 -21.844 -19.250  0.00  0.00    +0.003 C 
ATOM     10  C   UNL     1      36.279 -18.445 -21.666  0.00  0.00    +0.082 C 
ATOM     11  C   UNL     1      34.880 -18.108 -21.988  0.00  0.00    +0.346 C 
ENDROOT
TORSDOF 0
ENDMDL
MODEL 4
REMARK VINA RESULT:      -7.1      5.553      6.936
REMARK  Name = 323
REMARK  0 active torsions:
REMARK  status: ('A' for Active; 'I' for Inactive)
REMARK                            x       y       z     vdW  Elec       q    Type
REMARK                         _______ _______ _______ _____ _____    ______ ____
ROOT
ATOM      1  O   UNL     1      33.384 -14.976 -24.464  0.00  0.00    -0.421 OA
ATOM      2  O   UNL     1      33.378 -15.536 -26.684  0.00  0.00    -0.244 OA
ATOM      3  C   UNL     1      34.554 -16.412 -22.884  0.00  0.00    +0.035 C 
ATOM      4  C   UNL     1      33.791 -15.278 -23.147  0.00  0.00    +0.149 C 
ATOM      5  C   UNL     1      34.937 -16.678 -21.567  0.00  0.00    +0.003 C 
ATOM      6  C   UNL     1      34.924 -17.280 -23.989  0.00  0.00    +0.010 C 
ATOM      7  C   UNL     1      33.402 -14.404 -22.134  0.00  0.00    +0.038 C 
ATOM      8  C   UNL     1      34.555 -15.810 -20.540  0.00  0.00    +0.000 C 
ATOM      9  C   UNL     1      33.789 -14.676 -20.823  0.00  0.00    +0.003 C 
ATOM     10  C   UNL     1      34.535 -16.987 -25.233  0.00  0.00    +0.082 C 
ATOM     11  C   UNL     1      33.727 -15.792 -25.537  0.00  0.00    +0.346 C 
ENDROOT
TORSDOF 0
ENDMDL
MODEL 5
REMARK VINA RESULT:      -7.0      4.582      6.499
REMARK  Name = 323
REMARK  0 active torsions:
REMARK  status: ('A' for Active; 'I' for Inactive)
REMARK                            x       y       z     vdW  Elec       q    Type
REMARK                         _______ _______ _______ _____ _____    ______ ____
ROOT
ATOM      1  O   UNL     1      34.327 -16.956 -25.128  0.00  0.00    -0.421 OA
ATOM      2  O   UNL     1      33.442 -15.490 -26.648  0.00  0.00    -0.244 OA
ATOM      3  C   UNL     1      34.469 -16.295 -22.789  0.00  0.00    +0.035 C 
ATOM      4  C   UNL     1      34.683 -17.237 -23.792  0.00  0.00    +0.149 C 
ATOM      5  C   UNL     1      34.835 -16.609 -21.478  0.00  0.00    +0.003 C 
ATOM      6  C   UNL     1      33.872 -15.018 -23.143  0.00  0.00    +0.010 C 
ATOM      7  C   UNL     1      35.251 -18.480 -23.521  0.00  0.00    +0.038 C 
ATOM      8  C   UNL     1      35.405 -17.852 -21.191  0.00  0.00    +0.000 C 
ATOM      9  C   UNL     1      35.613 -18.785 -22.210  0.00  0.00    +0.003 C 
ATOM     10  C   UNL     1      33.538 -14.761 -24.410  0.00  0.00    +0.082 C 
ATOM     11  C   UNL     1      33.755 -15.741 -25.490  0.00  0.00    +0.346 C 
ENDROOT
TORSDOF 0
ENDMDL
MODEL 6
REMARK VINA RESULT:      -7.0      4.397      6.045
REMARK  Name = 323
REMARK  0 active torsions:
REMARK  status: ('A' for Active; 'I' for Inactive)
REMARK                            x       y       z     vdW  Elec       q    Type
REMARK                         _______ _______ _______ _____ _____    ______ ____
ROOT
ATOM      1  O   UNL     1      34.470 -15.524 -23.656  0.00  0.00    -0.421 OA
ATOM      2  O   UNL     1      34.157 -13.290 -23.264  0.00  0.00    -0.244 OA
ATOM      3  C   UNL     1      34.666 -17.041 -21.762  0.00  0.00    +0.035 C 
ATOM      4  C   UNL     1      34.646 -16.824 -23.137  0.00  0.00    +0.149 C 
ATOM      5  C   UNL     1      34.842 -18.343 -21.286  0.00  0.00    +0.003 C 
ATOM      6  C   UNL     1      34.502 -15.905 -20.870  0.00  0.00    +0.010 C 
ATOM      7  C   UNL     1      34.797 -17.869 -24.046  0.00  0.00    +0.038 C 
ATOM      8  C   UNL     1      34.995 -19.400 -22.187  0.00  0.00    +0.000 C 
ATOM      9  C   UNL     1      34.972 -19.164 -23.564  0.00  0.00    +0.003 C 
ATOM     10  C   UNL     1      34.336 -14.678 -21.370  0.00  0.00    +0.082 C 
ATOM     11  C   UNL     1      34.311 -14.422 -22.822  0.00  0.00    +0.346 C 
ENDROOT
TORSDOF 0
ENDMDL
MODEL 7
REMARK VINA RESULT:      -6.9      4.110      5.654
REMARK  Name = 323
REMARK  0 active torsions:
REMARK  status: ('A' for Active; 'I' for Inactive)
REMARK                            x       y       z     vdW  Elec       q    Type
REMARK                         _______ _______ _______ _____ _____    ______ ____
ROOT
ATOM      1  O   UNL     1      34.936 -16.672 -21.430  0.00  0.00    -0.421 OA
ATOM      2  O   UNL     1      34.877 -14.783 -20.137  0.00  0.00    -0.244 OA
ATOM      3  C   UNL     1      34.467 -16.492 -23.812  0.00  0.00    +0.035 C 
ATOM      4  C   UNL     1      34.795 -17.266 -22.702  0.00  0.00    +0.149 C 
ATOM      5  C   UNL     1      34.336 -17.115 -25.055  0.00  0.00    +0.003 C 
ATOM      6  C   UNL     1      34.273 -15.062 -23.637  0.00  0.00    +0.010 C 
ATOM      7  C   UNL     1      34.994 -18.641 -22.800  0.00  0.00    +0.038 C 
ATOM      8  C   UNL     1      34.533 -18.494 -25.169  0.00  0.00    +0.000 C 
ATOM      9  C   UNL     1      34.861 -19.255 -24.044  0.00  0.00    +0.003 C 
ATOM     10  C   UNL     1      34.409 -14.509 -22.429  0.00  0.00    +0.082 C 
ATOM     11  C   UNL     1      34.755 -15.306 -21.239  0.00  0.00    +0.346 C 
ENDROOT
TORSDOF 0
ENDMDL
MODEL 8
REMARK VINA RESULT:      -6.9      1.834      3.881
REMARK  Name = 323
REMARK  0 active torsions:
REMARK  status: ('A' for Active; 'I' for Inactive)
REMARK                            x       y       z     vdW  Elec       q    Type
REMARK                         _______ _______ _______ _____ _____    ______ ____
ROOT
ATOM      1  O   UNL     1      36.303 -19.485 -20.983  0.00  0.00    -0.421 OA
ATOM      2  O   UNL     1      36.210 -17.845 -22.578  0.00  0.00    -0.244 OA
ATOM      3  C   UNL     1      34.234 -20.532 -20.240  0.00  0.00    +0.035 C 
ATOM      4  C   UNL     1      35.620 -20.417 -20.173  0.00  0.00    +0.149 C 
ATOM      5  C   UNL     1      33.593 -21.466 -19.422  0.00  0.00    +0.003 C 
ATOM      6  C   UNL     1      33.503 -19.677 -21.160  0.00  0.00    +0.010 C 
ATOM      7  C   UNL     1      36.380 -21.206 -19.313  0.00  0.00    +0.038 C 
ATOM      8  C   UNL     1      34.343 -22.265 -18.555  0.00  0.00    +0.000 C 
ATOM      9  C   UNL     1      35.734 -22.135 -18.500  0.00  0.00    +0.003 C 
ATOM     10  C   UNL     1      34.157 -18.798 -21.923  0.00  0.00    +0.082 C 
ATOM     11  C   UNL     1      35.624 -18.656 -21.870  0.00  0.00    +0.346 C 
ENDROOT
TORSDOF 0
ENDMDL
MODEL 9
REMARK VINA RESULT:      -6.9      2.896      4.493
REMARK  Name = 323
REMARK  0 active torsions:
REMARK  status: ('A' for Active; 'I' for Inactive)
REMARK                            x       y       z     vdW  Elec       q    Type
REMARK                         _______ _______ _______ _____ _____    ______ ____
ROOT
ATOM      1  O   UNL     1      35.276 -17.524 -20.644  0.00  0.00    -0.421 OA
ATOM      2  O   UNL     1      35.977 -19.682 -20.332  0.00  0.00    -0.244 OA
ATOM      3  C   UNL     1      34.900 -16.717 -22.910  0.00  0.00    +0.035 C 
ATOM      4  C   UNL     1      34.903 -16.497 -21.535  0.00  0.00    +0.149 C 
ATOM      5  C   UNL     1      34.524 -15.675 -23.760  0.00  0.00    +0.003 C 
ATOM      6  C   UNL     1      35.289 -18.025 -23.410  0.00  0.00    +0.010 C 
ATOM      7  C   UNL     1      34.542 -15.267 -20.989  0.00  0.00    +0.038 C 
ATOM      8  C   UNL     1      34.159 -14.436 -23.227  0.00  0.00    +0.000 C 
ATOM      9  C   UNL     1      34.168 -14.232 -21.844  0.00  0.00    +0.003 C 
ATOM     10  C   UNL     1      35.641 -18.992 -22.560  0.00  0.00    +0.082 C 
ATOM     11  C   UNL     1      35.652 -18.784 -21.100  0.00  0.00    +0.346 C 
ENDROOT
TORSDOF 0
ENDMDL
