MODEL 1
REMARK VINA RESULT:      -5.9      0.000      0.000
REMARK  Name = 5288557
REMARK  3 active torsions:
REMARK  status: ('A' for Active; 'I' for Inactive)
REMARK    1  A    between atoms: C_4  and  C_9
REMARK    2  A    between atoms: C_9  and  C_10
REMARK    3  A    between atoms: C_10  and  C_13
REMARK                            x       y       z     vdW  Elec       q    Type
REMARK                         _______ _______ _______ _____ _____    ______ ____
ROOT
ATOM      1  S   UNL     1      34.727 -15.668 -23.448  0.00  0.00    -0.060 S 
ATOM      2  N   UNL     1      34.673 -17.116 -21.307  0.00  0.00    -0.389 NA
ATOM      3  N   UNL     1      34.554 -14.783 -20.946  0.00  0.00    -0.328 N 
ATOM      4  C   UNL     1      34.766 -17.947 -22.391  0.00  0.00    +0.101 C 
ATOM      5  C   UNL     1      34.809 -17.372 -23.628  0.00  0.00    +0.120 C 
ATOM      6  C   UNL     1      34.643 -15.877 -21.747  0.00  0.00    +0.204 C 
ATOM      7  H   UNL     1      34.537 -13.882 -21.344  0.00  0.00    +0.145 HD
ATOM      8  H   UNL     1      34.505 -14.890 -19.969  0.00  0.00    +0.145 HD
ENDROOT
BRANCH   4   9
ATOM      9  C   UNL     1      34.816 -19.425 -22.129  0.00  0.00    +0.063 C 
BRANCH   9  10
ATOM     10  C   UNL     1      34.534 -19.806 -20.666  0.00  0.00    +0.072 C 
ATOM     11  C   UNL     1      35.508 -20.856 -20.133  0.00  0.00    +0.009 C 
BRANCH  10  13
ATOM     12  O   UNL     1      32.585 -20.751 -19.549  0.00  0.00    -0.288 OA
ATOM     13  C   UNL     1      33.099 -20.295 -20.565  0.00  0.00    +0.207 C 
ENDBRANCH  10  13
ENDBRANCH   9  10
ENDBRANCH   4   9
TORSDOF 3
ENDMDL
MODEL 2
REMARK VINA RESULT:      -5.9      3.394      4.840
REMARK  Name = 5288557
REMARK  3 active torsions:
REMARK  status: ('A' for Active; 'I' for Inactive)
REMARK    1  A    between atoms: C_4  and  C_9
REMARK    2  A    between atoms: C_9  and  C_10
REMARK    3  A    between atoms: C_10  and  C_13
REMARK                            x       y       z     vdW  Elec       q    Type
REMARK                         _______ _______ _______ _____ _____    ______ ____
ROOT
ATOM      1  S   UNL     1      35.422 -21.857 -19.244  0.00  0.00    -0.060 S 
ATOM      2  N   UNL     1      34.191 -20.043 -20.613  0.00  0.00    -0.389 NA
ATOM      3  N   UNL     1      32.789 -21.576 -19.486  0.00  0.00    -0.328 N 
ATOM      4  C   UNL     1      35.540 -19.845 -20.743  0.00  0.00    +0.101 C 
ATOM      5  C   UNL     1      36.372 -20.707 -20.090  0.00  0.00    +0.120 C 
ATOM      6  C   UNL     1      34.007 -21.087 -19.835  0.00  0.00    +0.204 C 
ATOM      7  H   UNL     1      32.725 -22.365 -18.899  0.00  0.00    +0.145 HD
ATOM      8  H   UNL     1      31.970 -21.143 -19.819  0.00  0.00    +0.145 HD
ENDROOT
BRANCH   4   9
ATOM      9  C   UNL     1      35.992 -18.695 -21.596  0.00  0.00    +0.063 C 
BRANCH   9  10
ATOM     10  C   UNL     1      34.841 -17.822 -22.123  0.00  0.00    +0.072 C 
ATOM     11  C   UNL     1      34.863 -17.674 -23.644  0.00  0.00    +0.009 C 
BRANCH  10  13
ATOM     12  O   UNL     1      35.039 -16.293 -20.236  0.00  0.00    -0.288 OA
ATOM     13  C   UNL     1      34.917 -16.465 -21.444  0.00  0.00    +0.207 C 
ENDBRANCH  10  13
ENDBRANCH   9  10
ENDBRANCH   4   9
TORSDOF 3
ENDMDL
MODEL 3
REMARK VINA RESULT:      -5.8      3.777      5.156
REMARK  Name = 5288557
REMARK  3 active torsions:
REMARK  status: ('A' for Active; 'I' for Inactive)
REMARK    1  A    between atoms: C_4  and  C_9
REMARK    2  A    between atoms: C_9  and  C_10
REMARK    3  A    between atoms: C_10  and  C_13
REMARK                            x       y       z     vdW  Elec       q    Type
REMARK                         _______ _______ _______ _____ _____    ______ ____
ROOT
ATOM      1  S   UNL     1      35.175 -22.031 -19.115  0.00  0.00    -0.060 S 
ATOM      2  N   UNL     1      33.017 -20.797 -19.822  0.00  0.00    -0.389 NA
ATOM      3  N   UNL     1      32.698 -22.621 -18.353  0.00  0.00    -0.328 N 
ATOM      4  C   UNL     1      34.084 -20.188 -20.427  0.00  0.00    +0.101 C 
ATOM      5  C   UNL     1      35.326 -20.695 -20.180  0.00  0.00    +0.120 C 
ATOM      6  C   UNL     1      33.477 -21.792 -19.096  0.00  0.00    +0.204 C 
ATOM      7  H   UNL     1      33.109 -23.349 -17.832  0.00  0.00    +0.145 HD
ATOM      8  H   UNL     1      31.722 -22.494 -18.333  0.00  0.00    +0.145 HD
ENDROOT
BRANCH   4   9
ATOM      9  C   UNL     1      33.797 -19.011 -21.315  0.00  0.00    +0.063 C 
BRANCH   9  10
ATOM     10  C   UNL     1      35.034 -18.152 -21.627  0.00  0.00    +0.072 C 
ATOM     11  C   UNL     1      34.871 -16.701 -21.177  0.00  0.00    +0.009 C 
BRANCH  10  13
ATOM     12  O   UNL     1      35.041 -19.193 -23.830  0.00  0.00    -0.288 OA
ATOM     13  C   UNL     1      35.309 -18.230 -23.119  0.00  0.00    +0.207 C 
ENDBRANCH  10  13
ENDBRANCH   9  10
ENDBRANCH   4   9
TORSDOF 3
ENDMDL
MODEL 4
REMARK VINA RESULT:      -5.8      1.722      2.020
REMARK  Name = 5288557
REMARK  3 active torsions:
REMARK  status: ('A' for Active; 'I' for Inactive)
REMARK    1  A    between atoms: C_4  and  C_9
REMARK    2  A    between atoms: C_9  and  C_10
REMARK    3  A    between atoms: C_10  and  C_13
REMARK                            x       y       z     vdW  Elec       q    Type
REMARK                         _______ _______ _______ _____ _____    ______ ____
ROOT
ATOM      1  S   UNL     1      34.683 -16.805 -24.733  0.00  0.00    -0.060 S 
ATOM      2  N   UNL     1      34.937 -16.331 -22.205  0.00  0.00    -0.389 NA
ATOM      3  N   UNL     1      34.340 -14.462 -23.523  0.00  0.00    -0.328 N 
ATOM      4  C   UNL     1      35.195 -17.657 -22.426  0.00  0.00    +0.101 C 
ATOM      5  C   UNL     1      35.113 -18.113 -23.710  0.00  0.00    +0.120 C 
ATOM      6  C   UNL     1      34.651 -15.775 -23.361  0.00  0.00    +0.204 C 
ATOM      7  H   UNL     1      34.137 -14.111 -24.421  0.00  0.00    +0.145 HD
ATOM      8  H   UNL     1      34.319 -13.861 -22.744  0.00  0.00    +0.145 HD
ENDROOT
BRANCH   4   9
ATOM      9  C   UNL     1      35.549 -18.502 -21.237  0.00  0.00    +0.063 C 
BRANCH   9  10
ATOM     10  C   UNL     1      34.799 -19.844 -21.182  0.00  0.00    +0.072 C 
ATOM     11  C   UNL     1      33.331 -19.684 -20.791  0.00  0.00    +0.009 C 
BRANCH  10  13
ATOM     12  O   UNL     1      36.419 -20.404 -19.449  0.00  0.00    -0.288 OA
ATOM     13  C   UNL     1      35.524 -20.759 -20.209  0.00  0.00    +0.207 C 
ENDBRANCH  10  13
ENDBRANCH   9  10
ENDBRANCH   4   9
TORSDOF 3
ENDMDL
MODEL 5
REMARK VINA RESULT:      -5.8      3.549      4.846
REMARK  Name = 5288557
REMARK  3 active torsions:
REMARK  status: ('A' for Active; 'I' for Inactive)
REMARK    1  A    between atoms: C_4  and  C_9
REMARK    2  A    between atoms: C_9  and  C_10
REMARK    3  A    between atoms: C_10  and  C_13
REMARK                            x       y       z     vdW  Elec       q    Type
REMARK                         _______ _______ _______ _____ _____    ______ ____
ROOT
ATOM      1  S   UNL     1      35.422 -20.960 -19.888  0.00  0.00    -0.060 S 
ATOM      2  N   UNL     1      33.805 -19.373 -21.135  0.00  0.00    -0.389 NA
ATOM      3  N   UNL     1      32.765 -21.010 -19.783  0.00  0.00    -0.328 N 
ATOM      4  C   UNL     1      35.090 -19.021 -21.451  0.00  0.00    +0.101 C 
ATOM      5  C   UNL     1      36.102 -19.744 -20.889  0.00  0.00    +0.120 C 
ATOM      6  C   UNL     1      33.857 -20.395 -20.307  0.00  0.00    +0.204 C 
ATOM      7  H   UNL     1      32.877 -21.772 -19.168  0.00  0.00    +0.145 HD
ATOM      8  H   UNL     1      31.862 -20.695 -20.016  0.00  0.00    +0.145 HD
ENDROOT
BRANCH   4   9
ATOM      9  C   UNL     1      35.280 -17.866 -22.391  0.00  0.00    +0.063 C 
BRANCH   9  10
ATOM     10  C   UNL     1      34.530 -18.021 -23.725  0.00  0.00    +0.072 C 
ATOM     11  C   UNL     1      34.900 -19.307 -24.463  0.00  0.00    +0.009 C 
BRANCH  10  13
ATOM     12  O   UNL     1      34.823 -16.792 -25.809  0.00  0.00    -0.288 OA
ATOM     13  C   UNL     1      34.819 -16.800 -24.582  0.00  0.00    +0.207 C 
ENDBRANCH  10  13
ENDBRANCH   9  10
ENDBRANCH   4   9
TORSDOF 3
ENDMDL
MODEL 6
REMARK VINA RESULT:      -5.7      2.117      2.668
REMARK  Name = 5288557
REMARK  3 active torsions:
REMARK  status: ('A' for Active; 'I' for Inactive)
REMARK    1  A    between atoms: C_4  and  C_9
REMARK    2  A    between atoms: C_9  and  C_10
REMARK    3  A    between atoms: C_10  and  C_13
REMARK                            x       y       z     vdW  Elec       q    Type
REMARK                         _______ _______ _______ _____ _____    ______ ____
ROOT
ATOM      1  S   UNL     1      35.035 -16.598 -22.974  0.00  0.00    -0.060 S 
ATOM      2  N   UNL     1      34.864 -19.177 -23.026  0.00  0.00    -0.389 NA
ATOM      3  N   UNL     1      34.555 -18.106 -25.110  0.00  0.00    -0.328 N 
ATOM      4  C   UNL     1      35.122 -18.784 -21.739  0.00  0.00    +0.101 C 
ATOM      5  C   UNL     1      35.248 -17.446 -21.499  0.00  0.00    +0.120 C 
ATOM      6  C   UNL     1      34.797 -18.097 -23.773  0.00  0.00    +0.204 C 
ATOM      7  H   UNL     1      34.518 -17.258 -25.609  0.00  0.00    +0.145 HD
ATOM      8  H   UNL     1      34.417 -18.960 -25.580  0.00  0.00    +0.145 HD
ENDROOT
BRANCH   4   9
ATOM      9  C   UNL     1      35.243 -19.859 -20.698  0.00  0.00    +0.063 C 
BRANCH   9  10
ATOM     10  C   UNL     1      33.989 -20.739 -20.564  0.00  0.00    +0.072 C 
ATOM     11  C   UNL     1      32.712 -19.921 -20.378  0.00  0.00    +0.009 C 
BRANCH  10  13
ATOM     12  O   UNL     1      35.172 -22.424 -19.261  0.00  0.00    -0.288 OA
ATOM     13  C   UNL     1      34.195 -21.696 -19.402  0.00  0.00    +0.207 C 
ENDBRANCH  10  13
ENDBRANCH   9  10
ENDBRANCH   4   9
TORSDOF 3
ENDMDL
MODEL 7
REMARK VINA RESULT:      -5.6      5.547      7.034
REMARK  Name = 5288557
REMARK  3 active torsions:
REMARK  status: ('A' for Active; 'I' for Inactive)
REMARK    1  A    between atoms: C_4  and  C_9
REMARK    2  A    between atoms: C_9  and  C_10
REMARK    3  A    between atoms: C_10  and  C_13
REMARK                            x       y       z     vdW  Elec       q    Type
REMARK                         _______ _______ _______ _____ _____    ______ ____
ROOT
ATOM      1  S   UNL     1      33.272 -23.405 -15.538  0.00  0.00    -0.060 S 
ATOM      2  N   UNL     1      32.169 -22.804 -17.797  0.00  0.00    -0.389 NA
ATOM      3  N   UNL     1      30.666 -23.165 -16.009  0.00  0.00    -0.328 N 
ATOM      4  C   UNL     1      33.528 -22.827 -17.969  0.00  0.00    +0.101 C 
ATOM      5  C   UNL     1      34.299 -23.127 -16.884  0.00  0.00    +0.120 C 
ATOM      6  C   UNL     1      31.915 -23.096 -16.540  0.00  0.00    +0.204 C 
ATOM      7  H   UNL     1      30.549 -23.390 -15.057  0.00  0.00    +0.145 HD
ATOM      8  H   UNL     1      29.880 -22.990 -16.574  0.00  0.00    +0.145 HD
ENDROOT
BRANCH   4   9
ATOM      9  C   UNL     1      34.057 -22.520 -19.340  0.00  0.00    +0.063 C 
BRANCH   9  10
ATOM     10  C   UNL     1      34.242 -21.018 -19.614  0.00  0.00    +0.072 C 
ATOM     11  C   UNL     1      33.132 -20.437 -20.489  0.00  0.00    +0.009 C 
BRANCH  10  13
ATOM     12  O   UNL     1      36.413 -19.954 -19.918  0.00  0.00    -0.288 OA
ATOM     13  C   UNL     1      35.604 -20.811 -20.255  0.00  0.00    +0.207 C 
ENDBRANCH  10  13
ENDBRANCH   9  10
ENDBRANCH   4   9
TORSDOF 3
ENDMDL
MODEL 8
REMARK VINA RESULT:      -5.6      2.098      2.695
REMARK  Name = 5288557
REMARK  3 active torsions:
REMARK  status: ('A' for Active; 'I' for Inactive)
REMARK    1  A    between atoms: C_4  and  C_9
REMARK    2  A    between atoms: C_9  and  C_10
REMARK    3  A    between atoms: C_10  and  C_13
REMARK                            x       y       z     vdW  Elec       q    Type
REMARK                         _______ _______ _______ _____ _____    ______ ____
ROOT
ATOM      1  S   UNL     1      33.614 -14.622 -24.019  0.00  0.00    -0.060 S 
ATOM      2  N   UNL     1      33.337 -15.050 -21.485  0.00  0.00    -0.389 NA
ATOM      3  N   UNL     1      31.988 -13.320 -22.366  0.00  0.00    -0.328 N 
ATOM      4  C   UNL     1      34.268 -15.928 -21.975  0.00  0.00    +0.101 C 
ATOM      5  C   UNL     1      34.560 -15.862 -23.306  0.00  0.00    +0.120 C 
ATOM      6  C   UNL     1      32.918 -14.304 -22.483  0.00  0.00    +0.204 C 
ATOM      7  H   UNL     1      31.721 -12.799 -23.157  0.00  0.00    +0.145 HD
ATOM      8  H   UNL     1      31.581 -13.129 -21.490  0.00  0.00    +0.145 HD
ENDROOT
BRANCH   4   9
ATOM      9  C   UNL     1      34.891 -16.889 -21.004  0.00  0.00    +0.063 C 
BRANCH   9  10
ATOM     10  C   UNL     1      35.027 -18.321 -21.549  0.00  0.00    +0.072 C 
ATOM     11  C   UNL     1      33.884 -19.231 -21.104  0.00  0.00    +0.009 C 
BRANCH  10  13
ATOM     12  O   UNL     1      36.540 -19.590 -20.121  0.00  0.00    -0.288 OA
ATOM     13  C   UNL     1      36.369 -18.878 -21.105  0.00  0.00    +0.207 C 
ENDBRANCH  10  13
ENDBRANCH   9  10
ENDBRANCH   4   9
TORSDOF 3
ENDMDL
MODEL 9
REMARK VINA RESULT:      -5.5      4.522      5.819
REMARK  Name = 5288557
REMARK  3 active torsions:
REMARK  status: ('A' for Active; 'I' for Inactive)
REMARK    1  A    between atoms: C_4  and  C_9
REMARK    2  A    between atoms: C_9  and  C_10
REMARK    3  A    between atoms: C_10  and  C_13
REMARK                            x       y       z     vdW  Elec       q    Type
REMARK                         _______ _______ _______ _____ _____    ______ ____
ROOT
ATOM      1  S   UNL     1      35.035 -20.873 -19.987  0.00  0.00    -0.060 S 
ATOM      2  N   UNL     1      32.774 -21.836 -19.183  0.00  0.00    -0.389 NA
ATOM      3  N   UNL     1      32.618 -20.120 -20.801  0.00  0.00    -0.328 N 
ATOM      4  C   UNL     1      33.783 -22.489 -18.527  0.00  0.00    +0.101 C 
ATOM      5  C   UNL     1      35.066 -22.123 -18.813  0.00  0.00    +0.120 C 
ATOM      6  C   UNL     1      33.321 -20.952 -19.989  0.00  0.00    +0.204 C 
ATOM      7  H   UNL     1      33.093 -19.480 -21.380  0.00  0.00    +0.145 HD
ATOM      8  H   UNL     1      31.635 -20.156 -20.812  0.00  0.00    +0.145 HD
ENDROOT
BRANCH   4   9
ATOM      9  C   UNL     1      33.393 -23.555 -17.544  0.00  0.00    +0.063 C 
BRANCH   9  10
ATOM     10  C   UNL     1      32.764 -23.008 -16.251  0.00  0.00    +0.072 C 
ATOM     11  C   UNL     1      33.433 -23.559 -14.992  0.00  0.00    +0.009 C 
BRANCH  10  13
ATOM     12  O   UNL     1      30.424 -22.667 -16.835  0.00  0.00    -0.288 OA
ATOM     13  C   UNL     1      31.280 -23.333 -16.264  0.00  0.00    +0.207 C 
ENDBRANCH  10  13
ENDBRANCH   9  10
ENDBRANCH   4   9
TORSDOF 3
ENDMDL
