MODEL 1
REMARK VINA RESULT:     -10.3      0.000      0.000
REMARK  Name = 5312125
REMARK  15 active torsions:
REMARK  status: ('A' for Active; 'I' for Inactive)
REMARK    1  A    between atoms: C_1  and  C_7
REMARK    2  A    between atoms: C_1  and  C_21
REMARK    3  A    between atoms: N_2  and  C_16
REMARK    4  A    between atoms: C_8  and  C_13
REMARK    5  A    between atoms: C_16  and  C_17
REMARK    6  A    between atoms: C_17  and  C_18
REMARK    7  A    between atoms: C_18  and  O_19
REMARK    8  A    between atoms: C_21  and  N_23
REMARK    9  A    between atoms: N_23  and  C_26
REMARK   10  A    between atoms: C_26  and  C_27
REMARK   11  A    between atoms: C_27  and  O_28
REMARK   12  A    between atoms: O_28  and  C_29
REMARK   13  A    between atoms: C_30  and  O_35
REMARK   14  A    between atoms: O_35  and  C_36
REMARK   15  A    between atoms: C_36  and  C_40
REMARK                            x       y       z     vdW  Elec       q    Type
REMARK                         _______ _______ _______ _____ _____    ______ ____
ROOT
ATOM      1  C   UNL     1      35.521 -20.257 -20.918  0.00  0.00    +0.005 C 
ENDROOT
BRANCH   1   7
ATOM      2  N   UNL     1      34.145 -15.633 -23.861  0.00  0.00    -0.307 N 
ATOM      3  C   UNL     1      34.474 -16.668 -22.997  0.00  0.00    +0.048 C 
ATOM      4  C   UNL     1      34.504 -16.070 -25.208  0.00  0.00    +0.095 C 
ATOM      5  C   UNL     1      34.760 -17.848 -23.696  0.00  0.00    -0.007 C 
ATOM      6  C   UNL     1      34.596 -17.609 -25.162  0.00  0.00    +0.049 C 
ATOM      7  C   UNL     1      35.158 -19.011 -21.655  0.00  0.00    -0.024 C 
ATOM      8  C   UNL     1      34.531 -16.658 -21.611  0.00  0.00    +0.066 C 
ATOM      9  C   UNL     1      35.096 -19.024 -23.047  0.00  0.00    -0.007 C 
ATOM     10  C   UNL     1      34.878 -17.836 -20.942  0.00  0.00    +0.001 C 
BRANCH   8  13
ATOM     11  O   UNL     1      35.147 -14.700 -20.458  0.00  0.00    -0.270 OA
ATOM     12  N   UNL     1      32.923 -15.258 -20.433  0.00  0.00    -0.325 N 
ATOM     13  C   UNL     1      34.246 -15.485 -20.801  0.00  0.00    +0.244 C 
ATOM     14  H   UNL     1      32.692 -14.474 -19.885  0.00  0.00    +0.145 HD
ATOM     15  H   UNL     1      32.218 -15.881 -20.723  0.00  0.00    +0.145 HD
ENDBRANCH   8  13
BRANCH   2  16
ATOM     16  C   UNL     1      34.113 -14.243 -23.481  0.00  0.00    +0.093 C 
BRANCH  16  17
ATOM     17  C   UNL     1      32.772 -13.612 -23.838  0.00  0.00    +0.053 C 
BRANCH  17  18
ATOM     18  C   UNL     1      32.384 -12.473 -22.903  0.00  0.00    +0.139 C 
BRANCH  18  19
ATOM     19  O   UNL     1      31.677 -13.012 -21.793  0.00  0.00    -0.382 OA
ATOM     20  H   UNL     1      31.658 -13.980 -21.861  0.00  0.00    +0.210 HD
ENDBRANCH  18  19
ENDBRANCH  17  18
ENDBRANCH  16  17
ENDBRANCH   2  16
ENDBRANCH   1   7
BRANCH   1  21
ATOM     21  C   UNL     1      34.475 -20.700 -19.868  0.00  0.00    -0.057 C 
ATOM     22  C   UNL     1      33.051 -20.680 -20.425  0.00  0.00    -0.023 C 
BRANCH  21  23
ATOM     23  N   UNL     1      34.769 -22.059 -19.405  0.00  0.00    +0.388 N 
ATOM     24  H   UNL     1      35.385 -22.011 -18.594  0.00  0.00    -0.084 HD
ATOM     25  H   UNL     1      35.221 -22.574 -20.161  0.00  0.00    -0.084 HD
BRANCH  23  26
ATOM     26  C   UNL     1      33.545 -22.750 -19.034  0.00  0.00    -0.033 C 
BRANCH  26  27
ATOM     27  C   UNL     1      33.596 -23.188 -17.580  0.00  0.00    +0.182 C 
BRANCH  27  28
ATOM     28  O   UNL     1      32.355 -22.869 -16.963  0.00  0.00    -0.475 OA
BRANCH  28  29
ATOM     29  C   UNL     1      32.035 -23.561 -15.824  0.00  0.00    +0.172 C 
ATOM     30  C   UNL     1      30.731 -24.008 -15.609  0.00  0.00    +0.173 C 
ATOM     31  C   UNL     1      33.025 -23.814 -14.875  0.00  0.00    +0.040 C 
ATOM     32  C   UNL     1      30.418 -24.710 -14.445  0.00  0.00    +0.040 C 
ATOM     33  C   UNL     1      32.712 -24.517 -13.711  0.00  0.00    +0.003 C 
ATOM     34  C   UNL     1      31.408 -24.964 -13.495  0.00  0.00    +0.003 C 
BRANCH  30  35
ATOM     35  O   UNL     1      29.756 -23.767 -16.527  0.00  0.00    -0.463 OA
BRANCH  35  36
ATOM     36  C   UNL     1      28.405 -23.855 -16.078  0.00  0.00    +0.308 C 
BRANCH  36  40
ATOM     37  F   UNL     1      26.552 -22.514 -15.535  0.00  0.00    -0.166 F 
ATOM     38  F   UNL     1      27.847 -21.828 -17.151  0.00  0.00    -0.166 F 
ATOM     39  F   UNL     1      28.533 -21.722 -15.078  0.00  0.00    -0.166 F 
ATOM     40  C   UNL     1      27.833 -22.467 -15.960  0.00  0.00    +0.438 C 
ENDBRANCH  36  40
ENDBRANCH  35  36
ENDBRANCH  30  35
ENDBRANCH  28  29
ENDBRANCH  27  28
ENDBRANCH  26  27
ENDBRANCH  23  26
ENDBRANCH  21  23
ENDBRANCH   1  21
TORSDOF 15
ENDMDL
MODEL 2
REMARK VINA RESULT:     -10.3      4.013      4.923
REMARK  Name = 5312125
REMARK  15 active torsions:
REMARK  status: ('A' for Active; 'I' for Inactive)
REMARK    1  A    between atoms: C_1  and  C_7
REMARK    2  A    between atoms: C_1  and  C_21
REMARK    3  A    between atoms: N_2  and  C_16
REMARK    4  A    between atoms: C_8  and  C_13
REMARK    5  A    between atoms: C_16  and  C_17
REMARK    6  A    between atoms: C_17  and  C_18
REMARK    7  A    between atoms: C_18  and  O_19
REMARK    8  A    between atoms: C_21  and  N_23
REMARK    9  A    between atoms: N_23  and  C_26
REMARK   10  A    between atoms: C_26  and  C_27
REMARK   11  A    between atoms: C_27  and  O_28
REMARK   12  A    between atoms: O_28  and  C_29
REMARK   13  A    between atoms: C_30  and  O_35
REMARK   14  A    between atoms: O_35  and  C_36
REMARK   15  A    between atoms: C_36  and  C_40
REMARK                            x       y       z     vdW  Elec       q    Type
REMARK                         _______ _______ _______ _____ _____    ______ ____
ROOT
ATOM      1  C   UNL     1      35.566 -20.177 -20.990  0.00  0.00    +0.005 C 
ENDROOT
BRANCH   1   7
ATOM      2  N   UNL     1      34.082 -15.552 -23.878  0.00  0.00    -0.307 N 
ATOM      3  C   UNL     1      34.440 -16.588 -23.027  0.00  0.00    +0.048 C 
ATOM      4  C   UNL     1      34.410 -15.981 -25.236  0.00  0.00    +0.095 C 
ATOM      5  C   UNL     1      34.718 -17.763 -23.738  0.00  0.00    -0.007 C 
ATOM      6  C   UNL     1      34.515 -17.519 -25.199  0.00  0.00    +0.049 C 
ATOM      7  C   UNL     1      35.175 -18.931 -21.713  0.00  0.00    -0.024 C 
ATOM      8  C   UNL     1      34.531 -16.583 -21.643  0.00  0.00    +0.066 C 
ATOM      9  C   UNL     1      35.079 -18.939 -23.103  0.00  0.00    -0.007 C 
ATOM     10  C   UNL     1      34.904 -17.761 -20.988  0.00  0.00    +0.001 C 
BRANCH   8  13
ATOM     11  O   UNL     1      35.158 -14.617 -20.510  0.00  0.00    -0.270 OA
ATOM     12  N   UNL     1      32.946 -15.209 -20.407  0.00  0.00    -0.325 N 
ATOM     13  C   UNL     1      34.257 -15.415 -20.821  0.00  0.00    +0.244 C 
ATOM     14  H   UNL     1      32.722 -14.429 -19.849  0.00  0.00    +0.145 HD
ATOM     15  H   UNL     1      32.240 -15.842 -20.672  0.00  0.00    +0.145 HD
ENDBRANCH   8  13
BRANCH   2  16
ATOM     16  C   UNL     1      34.049 -14.164 -23.492  0.00  0.00    +0.093 C 
BRANCH  16  17
ATOM     17  C   UNL     1      32.643 -13.593 -23.635  0.00  0.00    +0.053 C 
BRANCH  17  18
ATOM     18  C   UNL     1      32.398 -12.387 -22.736  0.00  0.00    +0.139 C 
BRANCH  18  19
ATOM     19  O   UNL     1      31.564 -12.783 -21.655  0.00  0.00    -0.382 OA
ATOM     20  H   UNL     1      30.647 -12.530 -21.845  0.00  0.00    +0.210 HD
ENDBRANCH  18  19
ENDBRANCH  17  18
ENDBRANCH  16  17
ENDBRANCH   2  16
ENDBRANCH   1   7
BRANCH   1  21
ATOM     21  C   UNL     1      34.603 -20.575 -19.847  0.00  0.00    -0.057 C 
ATOM     22  C   UNL     1      33.177 -20.812 -20.346  0.00  0.00    -0.023 C 
BRANCH  21  23
ATOM     23  N   UNL     1      35.073 -21.801 -19.195  0.00  0.00    +0.388 N 
ATOM     24  H   UNL     1      35.067 -22.563 -19.872  0.00  0.00    -0.084 HD
ATOM     25  H   UNL     1      34.453 -22.017 -18.415  0.00  0.00    -0.084 HD
BRANCH  23  26
ATOM     26  C   UNL     1      36.423 -21.625 -18.686  0.00  0.00    -0.033 C 
BRANCH  26  27
ATOM     27  C   UNL     1      36.438 -21.699 -17.168  0.00  0.00    +0.182 C 
BRANCH  27  28
ATOM     28  O   UNL     1      36.298 -23.059 -16.776  0.00  0.00    -0.475 OA
BRANCH  28  29
ATOM     29  C   UNL     1      35.390 -23.325 -15.784  0.00  0.00    +0.172 C 
ATOM     30  C   UNL     1      35.821 -23.653 -14.498  0.00  0.00    +0.173 C 
ATOM     31  C   UNL     1      34.026 -23.269 -16.070  0.00  0.00    +0.040 C 
ATOM     32  C   UNL     1      34.887 -23.923 -13.498  0.00  0.00    +0.040 C 
ATOM     33  C   UNL     1      33.092 -23.539 -15.069  0.00  0.00    +0.003 C 
ATOM     34  C   UNL     1      33.523 -23.866 -13.783  0.00  0.00    +0.003 C 
BRANCH  30  35
ATOM     35  O   UNL     1      37.150 -23.711 -14.207  0.00  0.00    -0.463 OA
BRANCH  35  36
ATOM     36  C   UNL     1      37.773 -24.992 -14.274  0.00  0.00    +0.308 C 
BRANCH  36  40
ATOM     37  F   UNL     1      39.888 -25.499 -13.381  0.00  0.00    -0.166 F 
ATOM     38  F   UNL     1      38.140 -26.205 -12.283  0.00  0.00    -0.166 F 
ATOM     39  F   UNL     1      38.649 -24.079 -12.282  0.00  0.00    -0.166 F 
ATOM     40  C   UNL     1      38.617 -25.194 -13.042  0.00  0.00    +0.438 C 
ENDBRANCH  36  40
ENDBRANCH  35  36
ENDBRANCH  30  35
ENDBRANCH  28  29
ENDBRANCH  27  28
ENDBRANCH  26  27
ENDBRANCH  23  26
ENDBRANCH  21  23
ENDBRANCH   1  21
TORSDOF 15
ENDMDL
MODEL 3
REMARK VINA RESULT:     -10.2      1.898      2.587
REMARK  Name = 5312125
REMARK  15 active torsions:
REMARK  status: ('A' for Active; 'I' for Inactive)
REMARK    1  A    between atoms: C_1  and  C_7
REMARK    2  A    between atoms: C_1  and  C_21
REMARK    3  A    between atoms: N_2  and  C_16
REMARK    4  A    between atoms: C_8  and  C_13
REMARK    5  A    between atoms: C_16  and  C_17
REMARK    6  A    between atoms: C_17  and  C_18
REMARK    7  A    between atoms: C_18  and  O_19
REMARK    8  A    between atoms: C_21  and  N_23
REMARK    9  A    between atoms: N_23  and  C_26
REMARK   10  A    between atoms: C_26  and  C_27
REMARK   11  A    between atoms: C_27  and  O_28
REMARK   12  A    between atoms: O_28  and  C_29
REMARK   13  A    between atoms: C_30  and  O_35
REMARK   14  A    between atoms: O_35  and  C_36
REMARK   15  A    between atoms: C_36  and  C_40
REMARK                            x       y       z     vdW  Elec       q    Type
REMARK                         _______ _______ _______ _____ _____    ______ ____
ROOT
ATOM      1  C   UNL     1      35.489 -20.293 -21.074  0.00  0.00    +0.005 C 
ENDROOT
BRANCH   1   7
ATOM      2  N   UNL     1      34.101 -15.592 -23.886  0.00  0.00    -0.307 N 
ATOM      3  C   UNL     1      34.434 -16.650 -23.052  0.00  0.00    +0.048 C 
ATOM      4  C   UNL     1      34.454 -15.994 -25.246  0.00  0.00    +0.095 C 
ATOM      5  C   UNL     1      34.716 -17.811 -23.784  0.00  0.00    -0.007 C 
ATOM      6  C   UNL     1      34.545 -17.533 -25.242  0.00  0.00    +0.049 C 
ATOM      7  C   UNL     1      35.123 -19.028 -21.776  0.00  0.00    -0.024 C 
ATOM      8  C   UNL     1      34.496 -16.678 -21.666  0.00  0.00    +0.066 C 
ATOM      9  C   UNL     1      35.055 -19.005 -23.168  0.00  0.00    -0.007 C 
ATOM     10  C   UNL     1      34.846 -17.873 -21.031  0.00  0.00    +0.001 C 
BRANCH   8  13
ATOM     11  O   UNL     1      35.123 -14.771 -20.436  0.00  0.00    -0.270 OA
ATOM     12  N   UNL     1      32.890 -15.285 -20.479  0.00  0.00    -0.325 N 
ATOM     13  C   UNL     1      34.215 -15.526 -20.824  0.00  0.00    +0.244 C 
ATOM     14  H   UNL     1      32.661 -14.515 -19.910  0.00  0.00    +0.145 HD
ATOM     15  H   UNL     1      32.179 -15.884 -20.804  0.00  0.00    +0.145 HD
ENDBRANCH   8  13
BRANCH   2  16
ATOM     16  C   UNL     1      34.071 -14.214 -23.469  0.00  0.00    +0.093 C 
BRANCH  16  17
ATOM     17  C   UNL     1      32.696 -13.602 -23.710  0.00  0.00    +0.053 C 
BRANCH  17  18
ATOM     18  C   UNL     1      32.411 -12.407 -22.808  0.00  0.00    +0.139 C 
BRANCH  18  19
ATOM     19  O   UNL     1      31.610 -12.838 -21.716  0.00  0.00    -0.382 OA
ATOM     20  H   UNL     1      32.163 -12.923 -20.924  0.00  0.00    +0.210 HD
ENDBRANCH  18  19
ENDBRANCH  17  18
ENDBRANCH  16  17
ENDBRANCH   2  16
ENDBRANCH   1   7
BRANCH   1  21
ATOM     21  C   UNL     1      34.620 -20.604 -19.833  0.00  0.00    -0.057 C 
ATOM     22  C   UNL     1      33.161 -20.882 -20.201  0.00  0.00    -0.023 C 
BRANCH  21  23
ATOM     23  N   UNL     1      35.147 -21.775 -19.127  0.00  0.00    +0.388 N 
ATOM     24  H   UNL     1      35.085 -22.590 -19.736  0.00  0.00    -0.084 HD
ATOM     25  H   UNL     1      34.598 -21.924 -18.280  0.00  0.00    -0.084 HD
BRANCH  23  26
ATOM     26  C   UNL     1      36.537 -21.565 -18.754  0.00  0.00    -0.033 C 
BRANCH  26  27
ATOM     27  C   UNL     1      36.742 -21.840 -17.273  0.00  0.00    +0.182 C 
BRANCH  27  28
ATOM     28  O   UNL     1      35.844 -22.865 -16.870  0.00  0.00    -0.475 OA
BRANCH  28  29
ATOM     29  C   UNL     1      35.836 -23.192 -15.539  0.00  0.00    +0.172 C 
ATOM     30  C   UNL     1      34.646 -23.552 -14.905  0.00  0.00    +0.173 C 
ATOM     31  C   UNL     1      37.030 -23.161 -14.819  0.00  0.00    +0.040 C 
ATOM     32  C   UNL     1      34.652 -23.882 -13.549  0.00  0.00    +0.040 C 
ATOM     33  C   UNL     1      37.035 -23.491 -13.463  0.00  0.00    +0.003 C 
ATOM     34  C   UNL     1      35.846 -23.851 -12.828  0.00  0.00    +0.003 C 
BRANCH  30  35
ATOM     35  O   UNL     1      33.475 -23.586 -15.597  0.00  0.00    -0.463 OA
BRANCH  35  36
ATOM     36  C   UNL     1      32.270 -23.515 -14.837  0.00  0.00    +0.308 C 
BRANCH  36  40
ATOM     37  F   UNL     1      31.533 -22.652 -16.896  0.00  0.00    -0.166 F 
ATOM     38  F   UNL     1      30.179 -22.481 -15.194  0.00  0.00    -0.166 F 
ATOM     39  F   UNL     1      30.520 -24.426 -16.131  0.00  0.00    -0.166 F 
ATOM     40  C   UNL     1      31.113 -23.268 -15.770  0.00  0.00    +0.438 C 
ENDBRANCH  36  40
ENDBRANCH  35  36
ENDBRANCH  30  35
ENDBRANCH  28  29
ENDBRANCH  27  28
ENDBRANCH  26  27
ENDBRANCH  23  26
ENDBRANCH  21  23
ENDBRANCH   1  21
TORSDOF 15
ENDMDL
MODEL 4
REMARK VINA RESULT:     -10.0      6.447     11.525
REMARK  Name = 5312125
REMARK  15 active torsions:
REMARK  status: ('A' for Active; 'I' for Inactive)
REMARK    1  A    between atoms: C_1  and  C_7
REMARK    2  A    between atoms: C_1  and  C_21
REMARK    3  A    between atoms: N_2  and  C_16
REMARK    4  A    between atoms: C_8  and  C_13
REMARK    5  A    between atoms: C_16  and  C_17
REMARK    6  A    between atoms: C_17  and  C_18
REMARK    7  A    between atoms: C_18  and  O_19
REMARK    8  A    between atoms: C_21  and  N_23
REMARK    9  A    between atoms: N_23  and  C_26
REMARK   10  A    between atoms: C_26  and  C_27
REMARK   11  A    between atoms: C_27  and  O_28
REMARK   12  A    between atoms: O_28  and  C_29
REMARK   13  A    between atoms: C_30  and  O_35
REMARK   14  A    between atoms: O_35  and  C_36
REMARK   15  A    between atoms: C_36  and  C_40
REMARK                            x       y       z     vdW  Elec       q    Type
REMARK                         _______ _______ _______ _____ _____    ______ ____
ROOT
ATOM      1  C   UNL     1      32.755 -13.310 -24.973  0.00  0.00    +0.005 C 
ENDROOT
BRANCH   1   7
ATOM      2  N   UNL     1      34.889 -17.878 -22.420  0.00  0.00    -0.307 N 
ATOM      3  C   UNL     1      34.333 -16.696 -22.888  0.00  0.00    +0.048 C 
ATOM      4  C   UNL     1      34.929 -18.807 -23.548  0.00  0.00    +0.095 C 
ATOM      5  C   UNL     1      34.263 -16.681 -24.287  0.00  0.00    -0.007 C 
ATOM      6  C   UNL     1      34.835 -17.951 -24.828  0.00  0.00    +0.049 C 
ATOM      7  C   UNL     1      33.307 -14.498 -24.257  0.00  0.00    -0.024 C 
ATOM      8  C   UNL     1      33.886 -15.600 -22.165  0.00  0.00    +0.066 C 
ATOM      9  C   UNL     1      33.761 -15.596 -24.987  0.00  0.00    -0.007 C 
ATOM     10  C   UNL     1      33.369 -14.500 -22.856  0.00  0.00    +0.001 C 
BRANCH   8  13
ATOM     11  O   UNL     1      35.001 -15.434 -20.097  0.00  0.00    -0.270 OA
ATOM     12  N   UNL     1      32.711 -15.533 -20.032  0.00  0.00    -0.325 N 
ATOM     13  C   UNL     1      33.924 -15.523 -20.713  0.00  0.00    +0.244 C 
ATOM     14  H   UNL     1      32.698 -15.482 -19.049  0.00  0.00    +0.145 HD
ATOM     15  H   UNL     1      31.866 -15.590 -20.533  0.00  0.00    +0.145 HD
ENDBRANCH   8  13
BRANCH   2  16
ATOM     16  C   UNL     1      34.806 -18.324 -21.053  0.00  0.00    +0.093 C 
BRANCH  16  17
ATOM     17  C   UNL     1      34.299 -19.760 -20.979  0.00  0.00    +0.053 C 
BRANCH  17  18
ATOM     18  C   UNL     1      32.827 -19.851 -20.594  0.00  0.00    +0.139 C 
BRANCH  18  19
ATOM     19  O   UNL     1      32.670 -20.878 -19.624  0.00  0.00    -0.382 OA
ATOM     20  H   UNL     1      33.198 -20.663 -18.838  0.00  0.00    +0.210 HD
ENDBRANCH  18  19
ENDBRANCH  17  18
ENDBRANCH  16  17
ENDBRANCH   2  16
ENDBRANCH   1   7
BRANCH   1  21
ATOM     21  C   UNL     1      33.775 -12.589 -25.885  0.00  0.00    -0.057 C 
ATOM     22  C   UNL     1      33.484 -12.813 -27.370  0.00  0.00    -0.023 C 
BRANCH  21  23
ATOM     23  N   UNL     1      33.754 -11.147 -25.624  0.00  0.00    +0.388 N 
ATOM     24  H   UNL     1      32.796 -10.807 -25.697  0.00  0.00    -0.084 HD
ATOM     25  H   UNL     1      34.348 -10.681 -26.310  0.00  0.00    -0.084 HD
BRANCH  23  26
ATOM     26  C   UNL     1      34.263 -10.861 -24.293  0.00  0.00    -0.033 C 
BRANCH  26  27
ATOM     27  C   UNL     1      33.740  -9.523 -23.795  0.00  0.00    +0.182 C 
BRANCH  27  28
ATOM     28  O   UNL     1      32.358  -9.659 -23.489  0.00  0.00    -0.475 OA
BRANCH  28  29
ATOM     29  C   UNL     1      32.042  -9.999 -22.199  0.00  0.00    +0.172 C 
ATOM     30  C   UNL     1      32.201  -9.078 -21.163  0.00  0.00    +0.173 C 
ATOM     31  C   UNL     1      31.559 -11.279 -21.926  0.00  0.00    +0.040 C 
ATOM     32  C   UNL     1      31.875  -9.437 -19.855  0.00  0.00    +0.040 C 
ATOM     33  C   UNL     1      31.234 -11.639 -20.618  0.00  0.00    +0.003 C 
ATOM     34  C   UNL     1      31.393 -10.717 -19.582  0.00  0.00    +0.003 C 
BRANCH  30  35
ATOM     35  O   UNL     1      32.670  -7.826 -21.416  0.00  0.00    -0.463 OA
BRANCH  35  36
ATOM     36  C   UNL     1      32.020  -6.743 -20.754  0.00  0.00    +0.308 C 
BRANCH  36  40
ATOM     37  F   UNL     1      32.037  -5.148 -22.481  0.00  0.00    -0.166 F 
ATOM     38  F   UNL     1      30.303  -5.175 -21.158  0.00  0.00    -0.166 F 
ATOM     39  F   UNL     1      30.585  -6.770 -22.626  0.00  0.00    -0.166 F 
ATOM     40  C   UNL     1      31.226  -5.954 -21.762  0.00  0.00    +0.438 C 
ENDBRANCH  36  40
ENDBRANCH  35  36
ENDBRANCH  30  35
ENDBRANCH  28  29
ENDBRANCH  27  28
ENDBRANCH  26  27
ENDBRANCH  23  26
ENDBRANCH  21  23
ENDBRANCH   1  21
TORSDOF 15
ENDMDL
MODEL 5
REMARK VINA RESULT:     -10.0      4.988     10.614
REMARK  Name = 5312125
REMARK  15 active torsions:
REMARK  status: ('A' for Active; 'I' for Inactive)
REMARK    1  A    between atoms: C_1  and  C_7
REMARK    2  A    between atoms: C_1  and  C_21
REMARK    3  A    between atoms: N_2  and  C_16
REMARK    4  A    between atoms: C_8  and  C_13
REMARK    5  A    between atoms: C_16  and  C_17
REMARK    6  A    between atoms: C_17  and  C_18
REMARK    7  A    between atoms: C_18  and  O_19
REMARK    8  A    between atoms: C_21  and  N_23
REMARK    9  A    between atoms: N_23  and  C_26
REMARK   10  A    between atoms: C_26  and  C_27
REMARK   11  A    between atoms: C_27  and  O_28
REMARK   12  A    between atoms: O_28  and  C_29
REMARK   13  A    between atoms: C_30  and  O_35
REMARK   14  A    between atoms: O_35  and  C_36
REMARK   15  A    between atoms: C_36  and  C_40
REMARK                            x       y       z     vdW  Elec       q    Type
REMARK                         _______ _______ _______ _____ _____    ______ ____
ROOT
ATOM      1  C   UNL     1      32.449 -23.510 -13.717  0.00  0.00    +0.005 C 
ENDROOT
BRANCH   1   7
ATOM      2  N   UNL     1      37.721 -25.527 -13.983  0.00  0.00    -0.307 N 
ATOM      3  C   UNL     1      36.483 -24.930 -13.789  0.00  0.00    +0.048 C 
ATOM      4  C   UNL     1      37.493 -26.737 -14.770  0.00  0.00    +0.095 C 
ATOM      5  C   UNL     1      35.505 -25.498 -14.616  0.00  0.00    -0.007 C 
ATOM      6  C   UNL     1      36.126 -26.562 -15.462  0.00  0.00    +0.049 C 
ATOM      7  C   UNL     1      33.853 -24.016 -13.751  0.00  0.00    -0.024 C 
ATOM      8  C   UNL     1      36.143 -23.893 -12.933  0.00  0.00    +0.066 C 
ATOM      9  C   UNL     1      34.193 -25.054 -14.616  0.00  0.00    -0.007 C 
ATOM     10  C   UNL     1      34.821 -23.440 -12.915  0.00  0.00    +0.001 C 
BRANCH   8  13
ATOM     11  O   UNL     1      37.954 -22.458 -12.479  0.00  0.00    -0.270 OA
ATOM     12  N   UNL     1      36.986 -23.502 -10.682  0.00  0.00    -0.325 N 
ATOM     13  C   UNL     1      37.090 -23.239 -12.044  0.00  0.00    +0.244 C 
ATOM     14  H   UNL     1      37.609 -23.078 -10.049  0.00  0.00    +0.145 HD
ATOM     15  H   UNL     1      36.288 -24.112 -10.350  0.00  0.00    +0.145 HD
ENDBRANCH   8  13
BRANCH   2  16
ATOM     16  C   UNL     1      38.834 -25.391 -13.078  0.00  0.00    +0.093 C 
BRANCH  16  17
ATOM     17  C   UNL     1      40.137 -25.807 -13.751  0.00  0.00    +0.053 C 
BRANCH  17  18
ATOM     18  C   UNL     1      40.409 -25.043 -15.041  0.00  0.00    +0.139 C 
BRANCH  18  19
ATOM     19  O   UNL     1      40.516 -25.974 -16.111  0.00  0.00    -0.382 OA
ATOM     20  H   UNL     1      39.932 -26.730 -15.941  0.00  0.00    +0.210 HD
ENDBRANCH  18  19
ENDBRANCH  17  18
ENDBRANCH  16  17
ENDBRANCH   2  16
ENDBRANCH   1   7
BRANCH   1  21
ATOM     21  C   UNL     1      31.546 -24.070 -14.840  0.00  0.00    -0.057 C 
ATOM     22  C   UNL     1      30.165 -24.479 -14.325  0.00  0.00    -0.023 C 
BRANCH  21  23
ATOM     23  N   UNL     1      31.366 -23.065 -15.892  0.00  0.00    +0.388 N 
ATOM     24  H   UNL     1      31.623 -22.149 -15.527  0.00  0.00    -0.084 HD
ATOM     25  H   UNL     1      30.390 -23.068 -16.186  0.00  0.00    -0.084 HD
BRANCH  23  26
ATOM     26  C   UNL     1      32.203 -23.372 -17.041  0.00  0.00    -0.033 C 
BRANCH  26  27
ATOM     27  C   UNL     1      32.343 -22.157 -17.943  0.00  0.00    +0.182 C 
BRANCH  27  28
ATOM     28  O   UNL     1      33.188 -22.493 -19.035  0.00  0.00    -0.475 OA
BRANCH  28  29
ATOM     29  C   UNL     1      33.793 -21.453 -19.692  0.00  0.00    +0.172 C 
ATOM     30  C   UNL     1      35.177 -21.285 -19.631  0.00  0.00    +0.173 C 
ATOM     31  C   UNL     1      33.012 -20.558 -20.423  0.00  0.00    +0.040 C 
ATOM     32  C   UNL     1      35.779 -20.222 -20.304  0.00  0.00    +0.040 C 
ATOM     33  C   UNL     1      33.615 -19.495 -21.096  0.00  0.00    +0.003 C 
ATOM     34  C   UNL     1      34.999 -19.327 -21.036  0.00  0.00    +0.003 C 
BRANCH  30  35
ATOM     35  O   UNL     1      35.950 -22.152 -18.921  0.00  0.00    -0.463 OA
BRANCH  35  36
ATOM     36  C   UNL     1      36.703 -21.611 -17.838  0.00  0.00    +0.308 C 
BRANCH  36  40
ATOM     37  F   UNL     1      37.513 -23.197 -16.303  0.00  0.00    -0.166 F 
ATOM     38  F   UNL     1      35.382 -23.249 -16.768  0.00  0.00    -0.166 F 
ATOM     39  F   UNL     1      36.195 -21.638 -15.534  0.00  0.00    -0.166 F 
ATOM     40  C   UNL     1      36.442 -22.429 -16.600  0.00  0.00    +0.438 C 
ENDBRANCH  36  40
ENDBRANCH  35  36
ENDBRANCH  30  35
ENDBRANCH  28  29
ENDBRANCH  27  28
ENDBRANCH  26  27
ENDBRANCH  23  26
ENDBRANCH  21  23
ENDBRANCH   1  21
TORSDOF 15
ENDMDL
MODEL 6
REMARK VINA RESULT:      -9.9      5.369     11.614
REMARK  Name = 5312125
REMARK  15 active torsions:
REMARK  status: ('A' for Active; 'I' for Inactive)
REMARK    1  A    between atoms: C_1  and  C_7
REMARK    2  A    between atoms: C_1  and  C_21
REMARK    3  A    between atoms: N_2  and  C_16
REMARK    4  A    between atoms: C_8  and  C_13
REMARK    5  A    between atoms: C_16  and  C_17
REMARK    6  A    between atoms: C_17  and  C_18
REMARK    7  A    between atoms: C_18  and  O_19
REMARK    8  A    between atoms: C_21  and  N_23
REMARK    9  A    between atoms: N_23  and  C_26
REMARK   10  A    between atoms: C_26  and  C_27
REMARK   11  A    between atoms: C_27  and  O_28
REMARK   12  A    between atoms: O_28  and  C_29
REMARK   13  A    between atoms: C_30  and  O_35
REMARK   14  A    between atoms: O_35  and  C_36
REMARK   15  A    between atoms: C_36  and  C_40
REMARK                            x       y       z     vdW  Elec       q    Type
REMARK                         _______ _______ _______ _____ _____    ______ ____
ROOT
ATOM      1  C   UNL     1      32.856 -13.332 -25.006  0.00  0.00    +0.005 C 
ENDROOT
BRANCH   1   7
ATOM      2  N   UNL     1      34.872 -17.924 -22.402  0.00  0.00    -0.307 N 
ATOM      3  C   UNL     1      34.344 -16.734 -22.883  0.00  0.00    +0.048 C 
ATOM      4  C   UNL     1      34.911 -18.859 -23.524  0.00  0.00    +0.095 C 
ATOM      5  C   UNL     1      34.293 -16.725 -24.283  0.00  0.00    -0.007 C 
ATOM      6  C   UNL     1      34.849 -18.009 -24.809  0.00  0.00    +0.049 C 
ATOM      7  C   UNL     1      33.377 -14.526 -24.277  0.00  0.00    -0.024 C 
ATOM      8  C   UNL     1      33.907 -15.627 -22.171  0.00  0.00    +0.066 C 
ATOM      9  C   UNL     1      33.821 -15.635 -24.995  0.00  0.00    -0.007 C 
ATOM     10  C   UNL     1      33.419 -14.522 -22.876  0.00  0.00    +0.001 C 
BRANCH   8  13
ATOM     11  O   UNL     1      34.997 -15.464 -20.090  0.00  0.00    -0.270 OA
ATOM     12  N   UNL     1      32.706 -15.534 -20.055  0.00  0.00    -0.325 N 
ATOM     13  C   UNL     1      33.927 -15.543 -20.720  0.00  0.00    +0.244 C 
ATOM     14  H   UNL     1      32.679 -15.478 -19.072  0.00  0.00    +0.145 HD
ATOM     15  H   UNL     1      31.866 -15.583 -20.567  0.00  0.00    +0.145 HD
ENDBRANCH   8  13
BRANCH   2  16
ATOM     16  C   UNL     1      34.763 -18.361 -21.033  0.00  0.00    +0.093 C 
BRANCH  16  17
ATOM     17  C   UNL     1      34.259 -19.798 -20.960  0.00  0.00    +0.053 C 
BRANCH  17  18
ATOM     18  C   UNL     1      32.774 -19.891 -20.629  0.00  0.00    +0.139 C 
BRANCH  18  19
ATOM     19  O   UNL     1      32.611 -20.722 -19.487  0.00  0.00    -0.382 OA
ATOM     20  H   UNL     1      32.058 -21.485 -19.719  0.00  0.00    +0.210 HD
ENDBRANCH  18  19
ENDBRANCH  17  18
ENDBRANCH  16  17
ENDBRANCH   2  16
ENDBRANCH   1   7
BRANCH   1  21
ATOM     21  C   UNL     1      33.838 -12.748 -26.049  0.00  0.00    -0.057 C 
ATOM     22  C   UNL     1      33.414 -13.065 -27.485  0.00  0.00    -0.023 C 
BRANCH  21  23
ATOM     23  N   UNL     1      33.921 -11.292 -25.904  0.00  0.00    +0.388 N 
ATOM     24  H   UNL     1      33.014 -10.881 -26.120  0.00  0.00    -0.084 HD
ATOM     25  H   UNL     1      34.631 -10.938 -26.545  0.00  0.00    -0.084 HD
BRANCH  23  26
ATOM     26  C   UNL     1      34.296 -10.934 -24.546  0.00  0.00    -0.033 C 
BRANCH  26  27
ATOM     27  C   UNL     1      35.050  -9.614 -24.527  0.00  0.00    +0.182 C 
BRANCH  27  28
ATOM     28  O   UNL     1      34.708  -8.910 -23.340  0.00  0.00    -0.475 OA
BRANCH  28  29
ATOM     29  C   UNL     1      33.664  -8.026 -23.425  0.00  0.00    +0.172 C 
ATOM     30  C   UNL     1      32.530  -8.189 -22.628  0.00  0.00    +0.173 C 
ATOM     31  C   UNL     1      33.741  -6.957 -24.318  0.00  0.00    +0.040 C 
ATOM     32  C   UNL     1      31.474  -7.282 -22.724  0.00  0.00    +0.040 C 
ATOM     33  C   UNL     1      32.685  -6.050 -24.414  0.00  0.00    +0.003 C 
ATOM     34  C   UNL     1      31.551  -6.214 -23.617  0.00  0.00    +0.003 C 
BRANCH  30  35
ATOM     35  O   UNL     1      32.443  -9.228 -21.752  0.00  0.00    -0.463 OA
BRANCH  35  36
ATOM     36  C   UNL     1      31.679 -10.360 -22.162  0.00  0.00    +0.308 C 
BRANCH  36  40
ATOM     37  F   UNL     1      31.951 -12.327 -20.905  0.00  0.00    -0.166 F 
ATOM     38  F   UNL     1      29.961 -11.434 -20.951  0.00  0.00    -0.166 F 
ATOM     39  F   UNL     1      31.563 -10.481 -19.809  0.00  0.00    -0.166 F 
ATOM     40  C   UNL     1      31.283 -11.154 -20.945  0.00  0.00    +0.438 C 
ENDBRANCH  36  40
ENDBRANCH  35  36
ENDBRANCH  30  35
ENDBRANCH  28  29
ENDBRANCH  27  28
ENDBRANCH  26  27
ENDBRANCH  23  26
ENDBRANCH  21  23
ENDBRANCH   1  21
TORSDOF 15
ENDMDL
MODEL 7
REMARK VINA RESULT:      -9.9      3.248      4.085
REMARK  Name = 5312125
REMARK  15 active torsions:
REMARK  status: ('A' for Active; 'I' for Inactive)
REMARK    1  A    between atoms: C_1  and  C_7
REMARK    2  A    between atoms: C_1  and  C_21
REMARK    3  A    between atoms: N_2  and  C_16
REMARK    4  A    between atoms: C_8  and  C_13
REMARK    5  A    between atoms: C_16  and  C_17
REMARK    6  A    between atoms: C_17  and  C_18
REMARK    7  A    between atoms: C_18  and  O_19
REMARK    8  A    between atoms: C_21  and  N_23
REMARK    9  A    between atoms: N_23  and  C_26
REMARK   10  A    between atoms: C_26  and  C_27
REMARK   11  A    between atoms: C_27  and  O_28
REMARK   12  A    between atoms: O_28  and  C_29
REMARK   13  A    between atoms: C_30  and  O_35
REMARK   14  A    between atoms: O_35  and  C_36
REMARK   15  A    between atoms: C_36  and  C_40
REMARK                            x       y       z     vdW  Elec       q    Type
REMARK                         _______ _______ _______ _____ _____    ______ ____
ROOT
ATOM      1  C   UNL     1      36.620 -19.392 -20.746  0.00  0.00    +0.005 C 
ENDROOT
BRANCH   1   7
ATOM      2  N   UNL     1      33.711 -15.789 -23.986  0.00  0.00    -0.307 N 
ATOM      3  C   UNL     1      34.393 -16.565 -23.059  0.00  0.00    +0.048 C 
ATOM      4  C   UNL     1      34.120 -16.248 -25.311  0.00  0.00    +0.095 C 
ATOM      5  C   UNL     1      34.999 -17.673 -23.665  0.00  0.00    -0.007 C 
ATOM      6  C   UNL     1      34.693 -17.669 -25.128  0.00  0.00    +0.049 C 
ATOM      7  C   UNL     1      35.846 -18.412 -21.564  0.00  0.00    -0.024 C 
ATOM      8  C   UNL     1      34.515 -16.377 -21.690  0.00  0.00    +0.066 C 
ATOM      9  C   UNL     1      35.721 -18.606 -22.939  0.00  0.00    -0.007 C 
ATOM     10  C   UNL     1      35.248 -17.306 -20.945  0.00  0.00    +0.001 C 
BRANCH   8  13
ATOM     11  O   UNL     1      34.561 -14.226 -20.735  0.00  0.00    -0.270 OA
ATOM     12  N   UNL     1      32.590 -15.385 -20.575  0.00  0.00    -0.325 N 
ATOM     13  C   UNL     1      33.917 -15.262 -20.973  0.00  0.00    +0.244 C 
ATOM     14  H   UNL     1      32.151 -14.651 -20.088  0.00  0.00    +0.145 HD
ATOM     15  H   UNL     1      32.088 -16.207 -20.782  0.00  0.00    +0.145 HD
ENDBRANCH   8  13
BRANCH   2  16
ATOM     16  C   UNL     1      33.264 -14.442 -23.738  0.00  0.00    +0.093 C 
BRANCH  16  17
ATOM     17  C   UNL     1      33.007 -13.704 -25.047  0.00  0.00    +0.053 C 
BRANCH  17  18
ATOM     18  C   UNL     1      33.876 -12.463 -25.210  0.00  0.00    +0.139 C 
BRANCH  18  19
ATOM     19  O   UNL     1      34.198 -11.957 -23.922  0.00  0.00    -0.382 OA
ATOM     20  H   UNL     1      34.480 -11.032 -23.999  0.00  0.00    +0.210 HD
ENDBRANCH  18  19
ENDBRANCH  17  18
ENDBRANCH  16  17
ENDBRANCH   2  16
ENDBRANCH   1   7
BRANCH   1  21
ATOM     21  C   UNL     1      35.872 -20.717 -20.470  0.00  0.00    -0.057 C 
ATOM     22  C   UNL     1      36.489 -21.500 -19.309  0.00  0.00    -0.023 C 
BRANCH  21  23
ATOM     23  N   UNL     1      34.468 -20.448 -20.150  0.00  0.00    +0.388 N 
ATOM     24  H   UNL     1      34.060 -19.873 -20.887  0.00  0.00    -0.084 HD
ATOM     25  H   UNL     1      34.422 -19.961 -19.255  0.00  0.00    -0.084 HD
BRANCH  23  26
ATOM     26  C   UNL     1      33.719 -21.690 -20.046  0.00  0.00    -0.033 C 
BRANCH  26  27
ATOM     27  C   UNL     1      32.938 -21.739 -18.743  0.00  0.00    +0.182 C 
BRANCH  27  28
ATOM     28  O   UNL     1      32.998 -23.061 -18.225  0.00  0.00    -0.475 OA
BRANCH  28  29
ATOM     29  C   UNL     1      32.757 -23.210 -16.883  0.00  0.00    +0.172 C 
ATOM     30  C   UNL     1      33.810 -23.436 -15.995  0.00  0.00    +0.173 C 
ATOM     31  C   UNL     1      31.448 -23.137 -16.409  0.00  0.00    +0.040 C 
ATOM     32  C   UNL     1      33.551 -23.587 -14.633  0.00  0.00    +0.040 C 
ATOM     33  C   UNL     1      31.189 -23.288 -15.046  0.00  0.00    +0.003 C 
ATOM     34  C   UNL     1      32.242 -23.514 -14.158  0.00  0.00    +0.003 C 
BRANCH  30  35
ATOM     35  O   UNL     1      35.092 -23.509 -16.446  0.00  0.00    -0.463 OA
BRANCH  35  36
ATOM     36  C   UNL     1      36.032 -22.599 -15.878  0.00  0.00    +0.308 C 
BRANCH  36  40
ATOM     37  F   UNL     1      37.437 -23.087 -14.057  0.00  0.00    -0.166 F 
ATOM     38  F   UNL     1      38.339 -23.068 -16.043  0.00  0.00    -0.166 F 
ATOM     39  F   UNL     1      37.012 -24.704 -15.459  0.00  0.00    -0.166 F 
ATOM     40  C   UNL     1      37.215 -23.373 -15.359  0.00  0.00    +0.438 C 
ENDBRANCH  36  40
ENDBRANCH  35  36
ENDBRANCH  30  35
ENDBRANCH  28  29
ENDBRANCH  27  28
ENDBRANCH  26  27
ENDBRANCH  23  26
ENDBRANCH  21  23
ENDBRANCH   1  21
TORSDOF 15
ENDMDL
MODEL 8
REMARK VINA RESULT:      -9.7      3.788     10.872
REMARK  Name = 5312125
REMARK  15 active torsions:
REMARK  status: ('A' for Active; 'I' for Inactive)
REMARK    1  A    between atoms: C_1  and  C_7
REMARK    2  A    between atoms: C_1  and  C_21
REMARK    3  A    between atoms: N_2  and  C_16
REMARK    4  A    between atoms: C_8  and  C_13
REMARK    5  A    between atoms: C_16  and  C_17
REMARK    6  A    between atoms: C_17  and  C_18
REMARK    7  A    between atoms: C_18  and  O_19
REMARK    8  A    between atoms: C_21  and  N_23
REMARK    9  A    between atoms: N_23  and  C_26
REMARK   10  A    between atoms: C_26  and  C_27
REMARK   11  A    between atoms: C_27  and  O_28
REMARK   12  A    between atoms: O_28  and  C_29
REMARK   13  A    between atoms: C_30  and  O_35
REMARK   14  A    between atoms: O_35  and  C_36
REMARK   15  A    between atoms: C_36  and  C_40
REMARK                            x       y       z     vdW  Elec       q    Type
REMARK                         _______ _______ _______ _____ _____    ______ ____
ROOT
ATOM      1  C   UNL     1      34.991 -21.802 -20.043  0.00  0.00    +0.005 C 
ENDROOT
BRANCH   1   7
ATOM      2  N   UNL     1      34.288 -23.543 -14.713  0.00  0.00    -0.307 N 
ATOM      3  C   UNL     1      34.627 -23.090 -15.981  0.00  0.00    +0.048 C 
ATOM      4  C   UNL     1      32.831 -23.488 -14.616  0.00  0.00    +0.095 C 
ATOM      5  C   UNL     1      33.503 -23.008 -16.813  0.00  0.00    -0.007 C 
ATOM      6  C   UNL     1      32.293 -23.459 -16.061  0.00  0.00    +0.049 C 
ATOM      7  C   UNL     1      34.851 -22.252 -18.627  0.00  0.00    -0.024 C 
ATOM      8  C   UNL     1      35.877 -22.750 -16.476  0.00  0.00    +0.066 C 
ATOM      9  C   UNL     1      33.594 -22.599 -18.133  0.00  0.00    -0.007 C 
ATOM     10  C   UNL     1      35.984 -22.327 -17.805  0.00  0.00    +0.001 C 
BRANCH   8  13
ATOM     11  O   UNL     1      37.528 -21.813 -15.083  0.00  0.00    -0.270 OA
ATOM     12  N   UNL     1      37.768 -24.028 -15.625  0.00  0.00    -0.325 N 
ATOM     13  C   UNL     1      37.099 -22.810 -15.690  0.00  0.00    +0.244 C 
ATOM     14  H   UNL     1      38.599 -24.107 -15.102  0.00  0.00    +0.145 HD
ATOM     15  H   UNL     1      37.410 -24.812 -16.100  0.00  0.00    +0.145 HD
ENDBRANCH   8  13
BRANCH   2  16
ATOM     16  C   UNL     1      35.146 -23.434 -13.561  0.00  0.00    +0.093 C 
BRANCH  16  17
ATOM     17  C   UNL     1      35.406 -24.803 -12.944  0.00  0.00    +0.053 C 
BRANCH  17  18
ATOM     18  C   UNL     1      36.176 -24.727 -11.631  0.00  0.00    +0.139 C 
BRANCH  18  19
ATOM     19  O   UNL     1      35.308 -25.102 -10.569  0.00  0.00    -0.382 OA
ATOM     20  H   UNL     1      35.020 -26.020 -10.697  0.00  0.00    +0.210 HD
ENDBRANCH  18  19
ENDBRANCH  17  18
ENDBRANCH  16  17
ENDBRANCH   2  16
ENDBRANCH   1   7
BRANCH   1  21
ATOM     21  C   UNL     1      35.311 -20.297 -20.201  0.00  0.00    -0.057 C 
ATOM     22  C   UNL     1      36.815 -20.026 -20.256  0.00  0.00    -0.023 C 
BRANCH  21  23
ATOM     23  N   UNL     1      34.704 -19.778 -21.431  0.00  0.00    +0.388 N 
ATOM     24  H   UNL     1      33.748 -19.484 -21.235  0.00  0.00    -0.084 HD
ATOM     25  H   UNL     1      34.710 -20.515 -22.136  0.00  0.00    -0.084 HD
BRANCH  23  26
ATOM     26  C   UNL     1      35.459 -18.642 -21.934  0.00  0.00    -0.033 C 
BRANCH  26  27
ATOM     27  C   UNL     1      34.733 -17.989 -23.099  0.00  0.00    +0.182 C 
BRANCH  27  28
ATOM     28  O   UNL     1      35.041 -16.601 -23.109  0.00  0.00    -0.475 OA
BRANCH  28  29
ATOM     29  C   UNL     1      34.327 -15.815 -23.976  0.00  0.00    +0.172 C 
ATOM     30  C   UNL     1      33.883 -14.551 -23.586  0.00  0.00    +0.173 C 
ATOM     31  C   UNL     1      34.044 -16.290 -25.256  0.00  0.00    +0.040 C 
ATOM     32  C   UNL     1      33.157 -13.762 -24.478  0.00  0.00    +0.040 C 
ATOM     33  C   UNL     1      33.317 -15.501 -26.148  0.00  0.00    +0.003 C 
ATOM     34  C   UNL     1      32.873 -14.236 -25.759  0.00  0.00    +0.003 C 
BRANCH  30  35
ATOM     35  O   UNL     1      34.154 -14.076 -22.339  0.00  0.00    -0.463 OA
BRANCH  35  36
ATOM     36  C   UNL     1      33.071 -14.034 -21.412  0.00  0.00    +0.308 C 
BRANCH  36  40
ATOM     37  F   UNL     1      32.482 -14.995 -19.349  0.00  0.00    -0.166 F 
ATOM     38  F   UNL     1      34.443 -15.494 -20.165  0.00  0.00    -0.166 F 
ATOM     39  F   UNL     1      32.635 -16.327 -21.070  0.00  0.00    -0.166 F 
ATOM     40  C   UNL     1      33.161 -15.224 -20.494  0.00  0.00    +0.438 C 
ENDBRANCH  36  40
ENDBRANCH  35  36
ENDBRANCH  30  35
ENDBRANCH  28  29
ENDBRANCH  27  28
ENDBRANCH  26  27
ENDBRANCH  23  26
ENDBRANCH  21  23
ENDBRANCH   1  21
TORSDOF 15
ENDMDL
MODEL 9
REMARK VINA RESULT:      -9.5      1.955      2.843
REMARK  Name = 5312125
REMARK  15 active torsions:
REMARK  status: ('A' for Active; 'I' for Inactive)
REMARK    1  A    between atoms: C_1  and  C_7
REMARK    2  A    between atoms: C_1  and  C_21
REMARK    3  A    between atoms: N_2  and  C_16
REMARK    4  A    between atoms: C_8  and  C_13
REMARK    5  A    between atoms: C_16  and  C_17
REMARK    6  A    between atoms: C_17  and  C_18
REMARK    7  A    between atoms: C_18  and  O_19
REMARK    8  A    between atoms: C_21  and  N_23
REMARK    9  A    between atoms: N_23  and  C_26
REMARK   10  A    between atoms: C_26  and  C_27
REMARK   11  A    between atoms: C_27  and  O_28
REMARK   12  A    between atoms: O_28  and  C_29
REMARK   13  A    between atoms: C_30  and  O_35
REMARK   14  A    between atoms: O_35  and  C_36
REMARK   15  A    between atoms: C_36  and  C_40
REMARK                            x       y       z     vdW  Elec       q    Type
REMARK                         _______ _______ _______ _____ _____    ______ ____
ROOT
ATOM      1  C   UNL     1      36.153 -18.971 -20.554  0.00  0.00    +0.005 C 
ENDROOT
BRANCH   1   7
ATOM      2  N   UNL     1      33.619 -14.816 -23.427  0.00  0.00    -0.307 N 
ATOM      3  C   UNL     1      34.249 -15.922 -22.872  0.00  0.00    +0.048 C 
ATOM      4  C   UNL     1      33.061 -14.043 -22.320  0.00  0.00    +0.095 C 
ATOM      5  C   UNL     1      34.388 -15.790 -21.484  0.00  0.00    -0.007 C 
ATOM      6  C   UNL     1      33.822 -14.476 -21.051  0.00  0.00    +0.049 C 
ATOM      7  C   UNL     1      35.486 -17.900 -21.352  0.00  0.00    -0.024 C 
ATOM      8  C   UNL     1      34.733 -17.055 -23.508  0.00  0.00    +0.066 C 
ATOM      9  C   UNL     1      35.004 -16.759 -20.712  0.00  0.00    -0.007 C 
ATOM     10  C   UNL     1      35.351 -18.047 -22.740  0.00  0.00    +0.001 C 
BRANCH   8  13
ATOM     11  O   UNL     1      35.256 -16.561 -25.750  0.00  0.00    -0.270 OA
ATOM     12  N   UNL     1      33.848 -18.333 -25.383  0.00  0.00    -0.325 N 
ATOM     13  C   UNL     1      34.640 -17.277 -24.942  0.00  0.00    +0.244 C 
ATOM     14  H   UNL     1      33.761 -18.514 -26.347  0.00  0.00    +0.145 HD
ATOM     15  H   UNL     1      33.376 -18.900 -24.732  0.00  0.00    +0.145 HD
ENDBRANCH   8  13
BRANCH   2  16
ATOM     16  C   UNL     1      33.054 -14.789 -24.752  0.00  0.00    +0.093 C 
BRANCH  16  17
ATOM     17  C   UNL     1      33.213 -13.411 -25.383  0.00  0.00    +0.053 C 
BRANCH  17  18
ATOM     18  C   UNL     1      33.165 -13.446 -26.906  0.00  0.00    +0.139 C 
BRANCH  18  19
ATOM     19  O   UNL     1      33.623 -14.717 -27.350  0.00  0.00    -0.382 OA
ATOM     20  H   UNL     1      33.909 -14.652 -28.275  0.00  0.00    +0.210 HD
ENDBRANCH  18  19
ENDBRANCH  17  18
ENDBRANCH  16  17
ENDBRANCH   2  16
ENDBRANCH   1   7
BRANCH   1  21
ATOM     21  C   UNL     1      35.576 -20.387 -20.787  0.00  0.00    -0.057 C 
ATOM     22  C   UNL     1      36.500 -21.484 -20.254  0.00  0.00    -0.023 C 
BRANCH  21  23
ATOM     23  N   UNL     1      34.276 -20.518 -20.123  0.00  0.00    +0.388 N 
ATOM     24  H   UNL     1      33.536 -20.315 -20.794  0.00  0.00    -0.084 HD
ATOM     25  H   UNL     1      34.237 -19.862 -19.344  0.00  0.00    -0.084 HD
BRANCH  23  26
ATOM     26  C   UNL     1      34.097 -21.867 -19.610  0.00  0.00    -0.033 C 
BRANCH  26  27
ATOM     27  C   UNL     1      32.948 -21.914 -18.616  0.00  0.00    +0.182 C 
BRANCH  27  28
ATOM     28  O   UNL     1      32.863 -23.228 -18.079  0.00  0.00    -0.475 OA
BRANCH  28  29
ATOM     29  C   UNL     1      32.997 -23.351 -16.721  0.00  0.00    +0.172 C 
ATOM     30  C   UNL     1      31.870 -23.420 -15.900  0.00  0.00    +0.173 C 
ATOM     31  C   UNL     1      34.273 -23.404 -16.160  0.00  0.00    +0.040 C 
ATOM     32  C   UNL     1      32.021 -23.545 -14.519  0.00  0.00    +0.040 C 
ATOM     33  C   UNL     1      34.423 -23.529 -14.778  0.00  0.00    +0.003 C 
ATOM     34  C   UNL     1      33.297 -23.598 -13.958  0.00  0.00    +0.003 C 
BRANCH  30  35
ATOM     35  O   UNL     1      30.620 -23.370 -16.435  0.00  0.00    -0.463 OA
BRANCH  35  36
ATOM     36  C   UNL     1      29.530 -23.231 -15.526  0.00  0.00    +0.308 C 
BRANCH  36  40
ATOM     37  F   UNL     1      27.214 -22.825 -15.493  0.00  0.00    -0.166 F 
ATOM     38  F   UNL     1      27.951 -24.316 -16.905  0.00  0.00    -0.166 F 
ATOM     39  F   UNL     1      28.320 -22.191 -17.264  0.00  0.00    -0.166 F 
ATOM     40  C   UNL     1      28.245 -23.141 -16.307  0.00  0.00    +0.438 C 
ENDBRANCH  36  40
ENDBRANCH  35  36
ENDBRANCH  30  35
ENDBRANCH  28  29
ENDBRANCH  27  28
ENDBRANCH  26  27
ENDBRANCH  23  26
ENDBRANCH  21  23
ENDBRANCH   1  21
TORSDOF 15
ENDMDL
