MODEL 1
REMARK VINA RESULT:      -8.6      0.000      0.000
REMARK  Name = 65177
REMARK  8 active torsions:
REMARK  status: ('A' for Active; 'I' for Inactive)
REMARK    1  A    between atoms: C_2  and  O_16
REMARK    2  A    between atoms: C_3  and  O_18
REMARK    3  A    between atoms: C_4  and  C_20
REMARK    4  A    between atoms: C_5  and  N_7
REMARK    5  A    between atoms: C_20  and  O_21
REMARK    6  A    between atoms: O_21  and  P_22
REMARK    7  A    between atoms: P_22  and  O_24
REMARK    8  A    between atoms: P_22  and  O_26
REMARK                            x       y       z     vdW  Elec       q    Type
REMARK                         _______ _______ _______ _____ _____    ______ ____
ROOT
ATOM      1  O   UNL     1      36.957 -23.063 -13.750  0.00  0.00    -0.332 OA
ATOM      2  C   UNL     1      36.555 -25.370 -13.273  0.00  0.00    +0.171 C 
ATOM      3  C   UNL     1      36.072 -25.052 -14.672  0.00  0.00    +0.188 C 
ATOM      4  C   UNL     1      37.387 -24.143 -12.895  0.00  0.00    +0.176 C 
ATOM      5  C   UNL     1      35.911 -23.541 -14.605  0.00  0.00    +0.236 C 
ENDROOT
BRANCH   5   7
ATOM      6  O   UNL     1      34.023 -23.791 -16.682  0.00  0.00    -0.193 OA
ATOM      7  N   UNL     1      35.987 -22.885 -15.876  0.00  0.00    -0.178 N 
ATOM      8  N   UNL     1      35.134 -22.392 -18.083  0.00  0.00    -0.306 NA
ATOM      9  N   UNL     1      36.277 -20.959 -19.514  0.00  0.00    -0.332 N 
ATOM     10  C   UNL     1      37.067 -22.053 -16.137  0.00  0.00    +0.083 C 
ATOM     11  C   UNL     1      34.995 -23.059 -16.878  0.00  0.00    +0.276 C 
ATOM     12  C   UNL     1      37.220 -21.404 -17.290  0.00  0.00    +0.065 C 
ATOM     13  C   UNL     1      36.159 -21.613 -18.308  0.00  0.00    +0.193 C 
ATOM     14  H   UNL     1      35.590 -21.078 -20.208  0.00  0.00    +0.145 HD
ATOM     15  H   UNL     1      37.050 -20.372 -19.682  0.00  0.00    +0.145 HD
ENDBRANCH   5   7
BRANCH   2  16
ATOM     16  O   UNL     1      35.434 -25.440 -12.393  0.00  0.00    -0.379 OA
ATOM     17  H   UNL     1      34.668 -25.791 -12.874  0.00  0.00    +0.211 HD
ENDBRANCH   2  16
BRANCH   3  18
ATOM     18  O   UNL     1      37.087 -25.423 -15.596  0.00  0.00    -0.378 OA
ATOM     19  H   UNL     1      37.513 -24.626 -15.947  0.00  0.00    +0.211 HD
ENDBRANCH   3  18
BRANCH   4  20
ATOM     20  C   UNL     1      38.882 -24.338 -13.106  0.00  0.00    +0.186 C 
BRANCH  20  21
ATOM     21  O   UNL     1      39.089 -25.574 -13.768  0.00  0.00    -0.271 OA
BRANCH  21  22
ATOM     22  P   UNL     1      40.493 -25.812 -14.538  0.00  0.00    +0.473 P 
ATOM     23  O   UNL     1      41.295 -26.981 -14.047  0.00  0.00    -0.227 OA
BRANCH  22  24
ATOM     24  O   UNL     1      41.232 -24.376 -14.438  0.00  0.00    -0.303 OA
ATOM     25  H   UNL     1      40.843 -23.767 -15.084  0.00  0.00    +0.222 HD
ENDBRANCH  22  24
BRANCH  22  26
ATOM     26  O   UNL     1      40.046 -25.893 -16.089  0.00  0.00    -0.303 OA
ATOM     27  H   UNL     1      40.827 -26.045 -16.644  0.00  0.00    +0.222 HD
ENDBRANCH  22  26
ENDBRANCH  21  22
ENDBRANCH  20  21
ENDBRANCH   4  20
TORSDOF 8
ENDMDL
MODEL 2
REMARK VINA RESULT:      -8.3      1.529      1.785
REMARK  Name = 65177
REMARK  8 active torsions:
REMARK  status: ('A' for Active; 'I' for Inactive)
REMARK    1  A    between atoms: C_2  and  O_16
REMARK    2  A    between atoms: C_3  and  O_18
REMARK    3  A    between atoms: C_4  and  C_20
REMARK    4  A    between atoms: C_5  and  N_7
REMARK    5  A    between atoms: C_20  and  O_21
REMARK    6  A    between atoms: O_21  and  P_22
REMARK    7  A    between atoms: P_22  and  O_24
REMARK    8  A    between atoms: P_22  and  O_26
REMARK                            x       y       z     vdW  Elec       q    Type
REMARK                         _______ _______ _______ _____ _____    ______ ____
ROOT
ATOM      1  O   UNL     1      36.263 -22.988 -14.445  0.00  0.00    -0.332 OA
ATOM      2  C   UNL     1      36.409 -25.181 -13.507  0.00  0.00    +0.171 C 
ATOM      3  C   UNL     1      35.354 -25.166 -14.593  0.00  0.00    +0.188 C 
ATOM      4  C   UNL     1      37.149 -23.857 -13.708  0.00  0.00    +0.176 C 
ATOM      5  C   UNL     1      35.033 -23.682 -14.686  0.00  0.00    +0.236 C 
ENDROOT
BRANCH   5   7
ATOM      6  O   UNL     1      32.321 -23.874 -15.427  0.00  0.00    -0.193 OA
ATOM      7  N   UNL     1      34.489 -23.277 -15.948  0.00  0.00    -0.178 N 
ATOM      8  N   UNL     1      32.652 -22.991 -17.493  0.00  0.00    -0.306 NA
ATOM      9  N   UNL     1      32.998 -22.087 -19.607  0.00  0.00    -0.332 N 
ATOM     10  C   UNL     1      35.342 -22.744 -16.905  0.00  0.00    +0.083 C 
ATOM     11  C   UNL     1      33.107 -23.404 -16.252  0.00  0.00    +0.276 C 
ATOM     12  C   UNL     1      34.924 -22.342 -18.104  0.00  0.00    +0.065 C 
ATOM     13  C   UNL     1      33.471 -22.491 -18.380  0.00  0.00    +0.193 C 
ATOM     14  H   UNL     1      32.040 -22.173 -19.818  0.00  0.00    +0.145 HD
ATOM     15  H   UNL     1      33.617 -21.710 -20.274  0.00  0.00    +0.145 HD
ENDBRANCH   5   7
BRANCH   2  16
ATOM     16  O   UNL     1      35.771 -25.149 -12.231  0.00  0.00    -0.379 OA
ATOM     17  H   UNL     1      35.851 -24.260 -11.853  0.00  0.00    +0.211 HD
ENDBRANCH   2  16
BRANCH   3  18
ATOM     18  O   UNL     1      35.938 -25.645 -15.798  0.00  0.00    -0.378 OA
ATOM     19  H   UNL     1      36.741 -25.137 -15.993  0.00  0.00    +0.211 HD
ENDBRANCH   3  18
BRANCH   4  20
ATOM     20  C   UNL     1      38.435 -24.000 -14.510  0.00  0.00    +0.186 C 
BRANCH  20  21
ATOM     21  O   UNL     1      39.321 -24.847 -13.799  0.00  0.00    -0.271 OA
BRANCH  21  22
ATOM     22  P   UNL     1      40.004 -26.086 -14.587  0.00  0.00    +0.473 P 
ATOM     23  O   UNL     1      41.241 -26.640 -13.945  0.00  0.00    -0.227 OA
BRANCH  22  24
ATOM     24  O   UNL     1      40.199 -25.522 -16.091  0.00  0.00    -0.303 OA
ATOM     25  H   UNL     1      39.874 -24.610 -16.139  0.00  0.00    +0.222 HD
ENDBRANCH  22  24
BRANCH  22  26
ATOM     26  O   UNL     1      38.784 -27.135 -14.738  0.00  0.00    -0.303 OA
ATOM     27  H   UNL     1      38.732 -27.442 -15.657  0.00  0.00    +0.222 HD
ENDBRANCH  22  26
ENDBRANCH  21  22
ENDBRANCH  20  21
ENDBRANCH   4  20
TORSDOF 8
ENDMDL
MODEL 3
REMARK VINA RESULT:      -8.2      2.536      4.397
REMARK  Name = 65177
REMARK  8 active torsions:
REMARK  status: ('A' for Active; 'I' for Inactive)
REMARK    1  A    between atoms: C_2  and  O_16
REMARK    2  A    between atoms: C_3  and  O_18
REMARK    3  A    between atoms: C_4  and  C_20
REMARK    4  A    between atoms: C_5  and  N_7
REMARK    5  A    between atoms: C_20  and  O_21
REMARK    6  A    between atoms: O_21  and  P_22
REMARK    7  A    between atoms: P_22  and  O_24
REMARK    8  A    between atoms: P_22  and  O_26
REMARK                            x       y       z     vdW  Elec       q    Type
REMARK                         _______ _______ _______ _____ _____    ______ ____
ROOT
ATOM      1  O   UNL     1      36.470 -25.931 -14.271  0.00  0.00    -0.332 OA
ATOM      2  C   UNL     1      38.525 -24.721 -14.420  0.00  0.00    +0.171 C 
ATOM      3  C   UNL     1      37.395 -23.862 -14.947  0.00  0.00    +0.188 C 
ATOM      4  C   UNL     1      37.802 -25.874 -13.721  0.00  0.00    +0.176 C 
ATOM      5  C   UNL     1      36.339 -24.909 -15.267  0.00  0.00    +0.236 C 
ENDROOT
BRANCH   5   7
ATOM      6  O   UNL     1      35.306 -23.045 -17.111  0.00  0.00    -0.193 OA
ATOM      7  N   UNL     1      34.997 -24.408 -15.274  0.00  0.00    -0.178 N 
ATOM      8  N   UNL     1      33.234 -23.027 -16.182  0.00  0.00    -0.306 NA
ATOM      9  N   UNL     1      31.115 -23.012 -15.225  0.00  0.00    -0.332 N 
ATOM     10  C   UNL     1      34.110 -24.857 -14.305  0.00  0.00    +0.083 C 
ATOM     11  C   UNL     1      34.546 -23.467 -16.237  0.00  0.00    +0.276 C 
ATOM     12  C   UNL     1      32.845 -24.446 -14.234  0.00  0.00    +0.065 C 
ATOM     13  C   UNL     1      32.415 -23.462 -15.262  0.00  0.00    +0.193 C 
ATOM     14  H   UNL     1      30.800 -22.360 -15.893  0.00  0.00    +0.145 HD
ATOM     15  H   UNL     1      30.499 -23.341 -14.531  0.00  0.00    +0.145 HD
ENDBRANCH   5   7
BRANCH   2  16
ATOM     16  O   UNL     1      39.262 -25.254 -15.519  0.00  0.00    -0.379 OA
ATOM     17  H   UNL     1      39.628 -24.527 -16.046  0.00  0.00    +0.211 HD
ENDBRANCH   2  16
BRANCH   3  18
ATOM     18  O   UNL     1      36.963 -22.994 -13.907  0.00  0.00    -0.378 OA
ATOM     19  H   UNL     1      36.672 -22.151 -14.288  0.00  0.00    +0.211 HD
ENDBRANCH   3  18
BRANCH   4  20
ATOM     20  C   UNL     1      37.677 -25.684 -12.215  0.00  0.00    +0.186 C 
BRANCH  20  21
ATOM     21  O   UNL     1      36.311 -25.478 -11.896  0.00  0.00    -0.271 OA
BRANCH  21  22
ATOM     22  P   UNL     1      35.923 -24.242 -10.926  0.00  0.00    +0.473 P 
ATOM     23  O   UNL     1      35.401 -24.636  -9.576  0.00  0.00    -0.227 OA
BRANCH  22  24
ATOM     24  O   UNL     1      34.916 -23.351 -11.824  0.00  0.00    -0.303 OA
ATOM     25  H   UNL     1      34.540 -23.900 -12.529  0.00  0.00    +0.222 HD
ENDBRANCH  22  24
BRANCH  22  26
ATOM     26  O   UNL     1      37.279 -23.361 -10.903  0.00  0.00    -0.303 OA
ATOM     27  H   UNL     1      37.637 -23.293 -11.802  0.00  0.00    +0.222 HD
ENDBRANCH  22  26
ENDBRANCH  21  22
ENDBRANCH  20  21
ENDBRANCH   4  20
TORSDOF 8
ENDMDL
MODEL 4
REMARK VINA RESULT:      -8.1      2.359      2.740
REMARK  Name = 65177
REMARK  8 active torsions:
REMARK  status: ('A' for Active; 'I' for Inactive)
REMARK    1  A    between atoms: C_2  and  O_16
REMARK    2  A    between atoms: C_3  and  O_18
REMARK    3  A    between atoms: C_4  and  C_20
REMARK    4  A    between atoms: C_5  and  N_7
REMARK    5  A    between atoms: C_20  and  O_21
REMARK    6  A    between atoms: O_21  and  P_22
REMARK    7  A    between atoms: P_22  and  O_24
REMARK    8  A    between atoms: P_22  and  O_26
REMARK                            x       y       z     vdW  Elec       q    Type
REMARK                         _______ _______ _______ _____ _____    ______ ____
ROOT
ATOM      1  O   UNL     1      36.507 -23.008 -13.774  0.00  0.00    -0.332 OA
ATOM      2  C   UNL     1      37.094 -24.932 -12.483  0.00  0.00    +0.171 C 
ATOM      3  C   UNL     1      35.706 -25.115 -13.060  0.00  0.00    +0.188 C 
ATOM      4  C   UNL     1      37.643 -23.727 -13.249  0.00  0.00    +0.176 C 
ATOM      5  C   UNL     1      35.309 -23.679 -13.364  0.00  0.00    +0.236 C 
ENDROOT
BRANCH   5   7
ATOM      6  O   UNL     1      32.529 -23.883 -12.951  0.00  0.00    -0.193 OA
ATOM      7  N   UNL     1      34.309 -23.549 -14.382  0.00  0.00    -0.178 N 
ATOM      8  N   UNL     1      32.013 -23.526 -15.133  0.00  0.00    -0.306 NA
ATOM      9  N   UNL     1      31.490 -23.161 -17.369  0.00  0.00    -0.332 N 
ATOM     10  C   UNL     1      34.711 -23.303 -15.687  0.00  0.00    +0.083 C 
ATOM     11  C   UNL     1      32.922 -23.664 -14.099  0.00  0.00    +0.276 C 
ATOM     12  C   UNL     1      33.852 -23.168 -16.696  0.00  0.00    +0.065 C 
ATOM     13  C   UNL     1      32.411 -23.294 -16.356  0.00  0.00    +0.193 C 
ATOM     14  H   UNL     1      30.528 -23.239 -17.174  0.00  0.00    +0.145 HD
ATOM     15  H   UNL     1      31.793 -22.986 -18.290  0.00  0.00    +0.145 HD
ENDBRANCH   5   7
BRANCH   2  16
ATOM     16  O   UNL     1      36.988 -24.577 -11.105  0.00  0.00    -0.379 OA
ATOM     17  H   UNL     1      36.582 -25.308 -10.614  0.00  0.00    +0.211 HD
ENDBRANCH   2  16
BRANCH   3  18
ATOM     18  O   UNL     1      35.809 -25.887 -14.250  0.00  0.00    -0.378 OA
ATOM     19  H   UNL     1      35.541 -26.801 -14.067  0.00  0.00    +0.211 HD
ENDBRANCH   3  18
BRANCH   4  20
ATOM     20  C   UNL     1      38.534 -24.113 -14.423  0.00  0.00    +0.186 C 
BRANCH  20  21
ATOM     21  O   UNL     1      39.695 -24.751 -13.920  0.00  0.00    -0.271 OA
BRANCH  21  22
ATOM     22  P   UNL     1      40.163 -26.145 -14.597  0.00  0.00    +0.473 P 
ATOM     23  O   UNL     1      41.336 -26.807 -13.936  0.00  0.00    -0.227 OA
BRANCH  22  24
ATOM     24  O   UNL     1      40.371 -25.765 -16.155  0.00  0.00    -0.303 OA
ATOM     25  H   UNL     1      39.589 -26.036 -16.661  0.00  0.00    +0.222 HD
ENDBRANCH  22  24
BRANCH  22  26
ATOM     26  O   UNL     1      38.802 -27.018 -14.605  0.00  0.00    -0.303 OA
ATOM     27  H   UNL     1      38.781 -27.577 -15.398  0.00  0.00    +0.222 HD
ENDBRANCH  22  26
ENDBRANCH  21  22
ENDBRANCH  20  21
ENDBRANCH   4  20
TORSDOF 8
ENDMDL
MODEL 5
REMARK VINA RESULT:      -8.0      1.271      1.743
REMARK  Name = 65177
REMARK  8 active torsions:
REMARK  status: ('A' for Active; 'I' for Inactive)
REMARK    1  A    between atoms: C_2  and  O_16
REMARK    2  A    between atoms: C_3  and  O_18
REMARK    3  A    between atoms: C_4  and  C_20
REMARK    4  A    between atoms: C_5  and  N_7
REMARK    5  A    between atoms: C_20  and  O_21
REMARK    6  A    between atoms: O_21  and  P_22
REMARK    7  A    between atoms: P_22  and  O_24
REMARK    8  A    between atoms: P_22  and  O_26
REMARK                            x       y       z     vdW  Elec       q    Type
REMARK                         _______ _______ _______ _____ _____    ______ ____
ROOT
ATOM      1  O   UNL     1      36.046 -22.730 -14.083  0.00  0.00    -0.332 OA
ATOM      2  C   UNL     1      35.731 -24.984 -13.355  0.00  0.00    +0.171 C 
ATOM      3  C   UNL     1      35.351 -24.868 -14.815  0.00  0.00    +0.188 C 
ATOM      4  C   UNL     1      36.461 -23.670 -13.070  0.00  0.00    +0.176 C 
ATOM      5  C   UNL     1      35.103 -23.374 -14.949  0.00  0.00    +0.236 C 
ENDROOT
BRANCH   5   7
ATOM      6  O   UNL     1      37.450 -22.232 -16.012  0.00  0.00    -0.193 OA
ATOM      7  N   UNL     1      35.249 -22.871 -16.283  0.00  0.00    -0.178 N 
ATOM      8  N   UNL     1      36.534 -21.842 -18.052  0.00  0.00    -0.306 NA
ATOM      9  N   UNL     1      35.591 -21.445 -20.140  0.00  0.00    -0.332 N 
ATOM     10  C   UNL     1      34.164 -22.936 -17.146  0.00  0.00    +0.083 C 
ATOM     11  C   UNL     1      36.466 -22.308 -16.750  0.00  0.00    +0.276 C 
ATOM     12  C   UNL     1      34.208 -22.493 -18.401  0.00  0.00    +0.065 C 
ATOM     13  C   UNL     1      35.501 -21.913 -18.849  0.00  0.00    +0.193 C 
ATOM     14  H   UNL     1      36.434 -21.055 -20.465  0.00  0.00    +0.145 HD
ATOM     15  H   UNL     1      34.810 -21.499 -20.738  0.00  0.00    +0.145 HD
ENDBRANCH   5   7
BRANCH   2  16
ATOM     16  O   UNL     1      34.546 -25.020 -12.561  0.00  0.00    -0.379 OA
ATOM     17  H   UNL     1      34.635 -25.704 -11.879  0.00  0.00    +0.211 HD
ENDBRANCH   2  16
BRANCH   3  18
ATOM     18  O   UNL     1      36.458 -25.282 -15.606  0.00  0.00    -0.378 OA
ATOM     19  H   UNL     1      37.073 -25.795 -15.058  0.00  0.00    +0.211 HD
ENDBRANCH   3  18
BRANCH   4  20
ATOM     20  C   UNL     1      37.977 -23.793 -13.141  0.00  0.00    +0.186 C 
BRANCH  20  21
ATOM     21  O   UNL     1      38.321 -25.168 -13.140  0.00  0.00    -0.271 OA
BRANCH  21  22
ATOM     22  P   UNL     1      39.366 -25.702 -14.255  0.00  0.00    +0.473 P 
ATOM     23  O   UNL     1      40.729 -26.046 -13.730  0.00  0.00    -0.227 OA
BRANCH  22  24
ATOM     24  O   UNL     1      39.333 -24.554 -15.393  0.00  0.00    -0.303 OA
ATOM     25  H   UNL     1      39.667 -24.917 -16.228  0.00  0.00    +0.222 HD
ENDBRANCH  22  24
BRANCH  22  26
ATOM     26  O   UNL     1      38.569 -26.929 -14.941  0.00  0.00    -0.303 OA
ATOM     27  H   UNL     1      38.346 -27.589 -14.265  0.00  0.00    +0.222 HD
ENDBRANCH  22  26
ENDBRANCH  21  22
ENDBRANCH  20  21
ENDBRANCH   4  20
TORSDOF 8
ENDMDL
MODEL 6
REMARK VINA RESULT:      -8.0      1.821      2.258
REMARK  Name = 65177
REMARK  8 active torsions:
REMARK  status: ('A' for Active; 'I' for Inactive)
REMARK    1  A    between atoms: C_2  and  O_16
REMARK    2  A    between atoms: C_3  and  O_18
REMARK    3  A    between atoms: C_4  and  C_20
REMARK    4  A    between atoms: C_5  and  N_7
REMARK    5  A    between atoms: C_20  and  O_21
REMARK    6  A    between atoms: O_21  and  P_22
REMARK    7  A    between atoms: P_22  and  O_24
REMARK    8  A    between atoms: P_22  and  O_26
REMARK                            x       y       z     vdW  Elec       q    Type
REMARK                         _______ _______ _______ _____ _____    ______ ____
ROOT
ATOM      1  O   UNL     1      36.075 -22.999 -13.197  0.00  0.00    -0.332 OA
ATOM      2  C   UNL     1      36.243 -25.100 -12.072  0.00  0.00    +0.171 C 
ATOM      3  C   UNL     1      35.308 -25.235 -13.255  0.00  0.00    +0.188 C 
ATOM      4  C   UNL     1      36.926 -23.751 -12.307  0.00  0.00    +0.176 C 
ATOM      5  C   UNL     1      34.917 -23.786 -13.502  0.00  0.00    +0.236 C 
ENDROOT
BRANCH   5   7
ATOM      6  O   UNL     1      36.616 -23.211 -15.675  0.00  0.00    -0.193 OA
ATOM      7  N   UNL     1      34.486 -23.514 -14.841  0.00  0.00    -0.178 N 
ATOM      8  N   UNL     1      34.913 -22.978 -17.158  0.00  0.00    -0.306 NA
ATOM      9  N   UNL     1      33.164 -22.741 -18.672  0.00  0.00    -0.332 N 
ATOM     10  C   UNL     1      33.127 -23.526 -15.122  0.00  0.00    +0.083 C 
ATOM     11  C   UNL     1      35.402 -23.232 -15.888  0.00  0.00    +0.276 C 
ATOM     12  C   UNL     1      32.636 -23.285 -16.336  0.00  0.00    +0.065 C 
ATOM     13  C   UNL     1      33.629 -22.995 -17.402  0.00  0.00    +0.193 C 
ATOM     14  H   UNL     1      33.799 -22.546 -19.400  0.00  0.00    +0.145 HD
ATOM     15  H   UNL     1      32.196 -22.754 -18.854  0.00  0.00    +0.145 HD
ENDBRANCH   5   7
BRANCH   2  16
ATOM     16  O   UNL     1      35.475 -25.011 -10.873  0.00  0.00    -0.379 OA
ATOM     17  H   UNL     1      35.864 -24.341 -10.289  0.00  0.00    +0.211 HD
ENDBRANCH   2  16
BRANCH   3  18
ATOM     18  O   UNL     1      36.040 -25.768 -14.351  0.00  0.00    -0.378 OA
ATOM     19  H   UNL     1      36.285 -26.687 -14.161  0.00  0.00    +0.211 HD
ENDBRANCH   3  18
BRANCH   4  20
ATOM     20  C   UNL     1      38.295 -23.873 -12.962  0.00  0.00    +0.186 C 
BRANCH  20  21
ATOM     21  O   UNL     1      38.660 -25.242 -13.000  0.00  0.00    -0.271 OA
BRANCH  21  22
ATOM     22  P   UNL     1      39.502 -25.782 -14.272  0.00  0.00    +0.473 P 
ATOM     23  O   UNL     1      40.904 -26.218 -13.964  0.00  0.00    -0.227 OA
BRANCH  22  24
ATOM     24  O   UNL     1      39.372 -24.586 -15.353  0.00  0.00    -0.303 OA
ATOM     25  H   UNL     1      39.661 -23.753 -14.950  0.00  0.00    +0.222 HD
ENDBRANCH  22  24
BRANCH  22  26
ATOM     26  O   UNL     1      38.545 -26.936 -14.877  0.00  0.00    -0.303 OA
ATOM     27  H   UNL     1      38.211 -27.492 -14.155  0.00  0.00    +0.222 HD
ENDBRANCH  22  26
ENDBRANCH  21  22
ENDBRANCH  20  21
ENDBRANCH   4  20
TORSDOF 8
ENDMDL
MODEL 7
REMARK VINA RESULT:      -7.9      2.597      3.987
REMARK  Name = 65177
REMARK  8 active torsions:
REMARK  status: ('A' for Active; 'I' for Inactive)
REMARK    1  A    between atoms: C_2  and  O_16
REMARK    2  A    between atoms: C_3  and  O_18
REMARK    3  A    between atoms: C_4  and  C_20
REMARK    4  A    between atoms: C_5  and  N_7
REMARK    5  A    between atoms: C_20  and  O_21
REMARK    6  A    between atoms: O_21  and  P_22
REMARK    7  A    between atoms: P_22  and  O_24
REMARK    8  A    between atoms: P_22  and  O_26
REMARK                            x       y       z     vdW  Elec       q    Type
REMARK                         _______ _______ _______ _____ _____    ______ ____
ROOT
ATOM      1  O   UNL     1      35.953 -25.075 -15.558  0.00  0.00    -0.332 OA
ATOM      2  C   UNL     1      37.439 -23.236 -15.214  0.00  0.00    +0.171 C 
ATOM      3  C   UNL     1      36.014 -22.782 -14.982  0.00  0.00    +0.188 C 
ATOM      4  C   UNL     1      37.328 -24.761 -15.252  0.00  0.00    +0.176 C 
ATOM      5  C   UNL     1      35.228 -23.850 -15.727  0.00  0.00    +0.236 C 
ENDROOT
BRANCH   5   7
ATOM      6  O   UNL     1      32.922 -22.967 -17.085  0.00  0.00    -0.193 OA
ATOM      7  N   UNL     1      33.881 -24.017 -15.268  0.00  0.00    -0.178 N 
ATOM      8  N   UNL     1      31.492 -23.741 -15.501  0.00  0.00    -0.306 NA
ATOM      9  N   UNL     1      30.032 -24.535 -13.875  0.00  0.00    -0.332 N 
ATOM     10  C   UNL     1      33.662 -24.661 -14.057  0.00  0.00    +0.083 C 
ATOM     11  C   UNL     1      32.765 -23.544 -16.008  0.00  0.00    +0.276 C 
ATOM     12  C   UNL     1      32.445 -24.859 -13.553  0.00  0.00    +0.065 C 
ATOM     13  C   UNL     1      31.307 -24.350 -14.360  0.00  0.00    +0.193 C 
ATOM     14  H   UNL     1      29.257 -24.209 -14.388  0.00  0.00    +0.145 HD
ATOM     15  H   UNL     1      29.895 -24.995 -13.015  0.00  0.00    +0.145 HD
ENDBRANCH   5   7
BRANCH   2  16
ATOM     16  O   UNL     1      37.874 -22.786 -16.496  0.00  0.00    -0.379 OA
ATOM     17  H   UNL     1      37.220 -23.039 -17.166  0.00  0.00    +0.211 HD
ENDBRANCH   2  16
BRANCH   3  18
ATOM     18  O   UNL     1      35.747 -22.823 -13.586  0.00  0.00    -0.378 OA
ATOM     19  H   UNL     1      35.521 -23.730 -13.326  0.00  0.00    +0.211 HD
ENDBRANCH   3  18
BRANCH   4  20
ATOM     20  C   UNL     1      37.674 -25.426 -13.927  0.00  0.00    +0.186 C 
BRANCH  20  21
ATOM     21  O   UNL     1      38.723 -26.353 -14.144  0.00  0.00    -0.271 OA
BRANCH  21  22
ATOM     22  P   UNL     1      40.194 -25.783 -14.508  0.00  0.00    +0.473 P 
ATOM     23  O   UNL     1      40.543 -24.474 -13.864  0.00  0.00    -0.227 OA
BRANCH  22  24
ATOM     24  O   UNL     1      40.217 -25.785 -16.125  0.00  0.00    -0.303 OA
ATOM     25  H   UNL     1      39.352 -25.503 -16.461  0.00  0.00    +0.222 HD
ENDBRANCH  22  24
BRANCH  22  26
ATOM     26  O   UNL     1      41.166 -27.015 -14.121  0.00  0.00    -0.303 OA
ATOM     27  H   UNL     1      42.090 -26.756 -14.265  0.00  0.00    +0.222 HD
ENDBRANCH  22  26
ENDBRANCH  21  22
ENDBRANCH  20  21
ENDBRANCH   4  20
TORSDOF 8
ENDMDL
MODEL 8
REMARK VINA RESULT:      -7.5      3.852      5.894
REMARK  Name = 65177
REMARK  8 active torsions:
REMARK  status: ('A' for Active; 'I' for Inactive)
REMARK    1  A    between atoms: C_2  and  O_16
REMARK    2  A    between atoms: C_3  and  O_18
REMARK    3  A    between atoms: C_4  and  C_20
REMARK    4  A    between atoms: C_5  and  N_7
REMARK    5  A    between atoms: C_20  and  O_21
REMARK    6  A    between atoms: O_21  and  P_22
REMARK    7  A    between atoms: P_22  and  O_24
REMARK    8  A    between atoms: P_22  and  O_26
REMARK                            x       y       z     vdW  Elec       q    Type
REMARK                         _______ _______ _______ _____ _____    ______ ____
ROOT
ATOM      1  O   UNL     1      34.834 -25.075 -15.225  0.00  0.00    -0.332 OA
ATOM      2  C   UNL     1      33.407 -24.022 -13.624  0.00  0.00    +0.171 C 
ATOM      3  C   UNL     1      34.780 -24.224 -13.019  0.00  0.00    +0.188 C 
ATOM      4  C   UNL     1      33.629 -24.290 -15.114  0.00  0.00    +0.176 C 
ATOM      5  C   UNL     1      35.348 -25.319 -13.909  0.00  0.00    +0.236 C 
ENDROOT
BRANCH   5   7
ATOM      6  O   UNL     1      36.995 -26.512 -11.959  0.00  0.00    -0.193 OA
ATOM      7  N   UNL     1      36.779 -25.362 -13.949  0.00  0.00    -0.178 N 
ATOM      8  N   UNL     1      38.926 -25.986 -13.031  0.00  0.00    -0.306 NA
ATOM      9  N   UNL     1      40.900 -25.444 -14.134  0.00  0.00    -0.332 N 
ATOM     10  C   UNL     1      37.437 -24.776 -15.021  0.00  0.00    +0.083 C 
ATOM     11  C   UNL     1      37.546 -25.982 -12.927  0.00  0.00    +0.276 C 
ATOM     12  C   UNL     1      38.764 -24.768 -15.140  0.00  0.00    +0.065 C 
ATOM     13  C   UNL     1      39.527 -25.429 -14.050  0.00  0.00    +0.193 C 
ATOM     14  H   UNL     1      41.433 -25.874 -13.427  0.00  0.00    +0.145 HD
ATOM     15  H   UNL     1      41.351 -25.024 -14.903  0.00  0.00    +0.145 HD
ENDBRANCH   5   7
BRANCH   2  16
ATOM     16  O   UNL     1      32.518 -25.015 -13.117  0.00  0.00    -0.379 OA
ATOM     17  H   UNL     1      33.024 -25.805 -12.869  0.00  0.00    +0.211 HD
ENDBRANCH   2  16
BRANCH   3  18
ATOM     18  O   UNL     1      35.517 -23.016 -13.154  0.00  0.00    -0.378 OA
ATOM     19  H   UNL     1      35.131 -22.478 -13.863  0.00  0.00    +0.211 HD
ENDBRANCH   3  18
BRANCH   4  20
ATOM     20  C   UNL     1      33.822 -23.021 -15.934  0.00  0.00    +0.186 C 
BRANCH  20  21
ATOM     21  O   UNL     1      33.082 -23.142 -17.136  0.00  0.00    -0.271 OA
BRANCH  21  22
ATOM     22  P   UNL     1      33.834 -22.845 -18.539  0.00  0.00    +0.473 P 
ATOM     23  O   UNL     1      33.875 -24.002 -19.492  0.00  0.00    -0.227 OA
BRANCH  22  24
ATOM     24  O   UNL     1      35.277 -22.271 -18.085  0.00  0.00    -0.303 OA
ATOM     25  H   UNL     1      35.637 -22.826 -17.376  0.00  0.00    +0.222 HD
ENDBRANCH  22  24
BRANCH  22  26
ATOM     26  O   UNL     1      33.068 -21.533 -19.090  0.00  0.00    -0.303 OA
ATOM     27  H   UNL     1      33.711 -20.925 -19.488  0.00  0.00    +0.222 HD
ENDBRANCH  22  26
ENDBRANCH  21  22
ENDBRANCH  20  21
ENDBRANCH   4  20
TORSDOF 8
ENDMDL
MODEL 9
REMARK VINA RESULT:      -7.4      2.953      4.448
REMARK  Name = 65177
REMARK  8 active torsions:
REMARK  status: ('A' for Active; 'I' for Inactive)
REMARK    1  A    between atoms: C_2  and  O_16
REMARK    2  A    between atoms: C_3  and  O_18
REMARK    3  A    between atoms: C_4  and  C_20
REMARK    4  A    between atoms: C_5  and  N_7
REMARK    5  A    between atoms: C_20  and  O_21
REMARK    6  A    between atoms: O_21  and  P_22
REMARK    7  A    between atoms: P_22  and  O_24
REMARK    8  A    between atoms: P_22  and  O_26
REMARK                            x       y       z     vdW  Elec       q    Type
REMARK                         _______ _______ _______ _____ _____    ______ ____
ROOT
ATOM      1  O   UNL     1      35.059 -24.718 -15.906  0.00  0.00    -0.332 OA
ATOM      2  C   UNL     1      36.807 -23.101 -15.703  0.00  0.00    +0.171 C 
ATOM      3  C   UNL     1      35.489 -22.392 -15.926  0.00  0.00    +0.188 C 
ATOM      4  C   UNL     1      36.392 -24.538 -15.381  0.00  0.00    +0.176 C 
ATOM      5  C   UNL     1      34.646 -23.500 -16.539  0.00  0.00    +0.236 C 
ENDROOT
BRANCH   5   7
ATOM      6  O   UNL     1      32.885 -22.529 -18.513  0.00  0.00    -0.193 OA
ATOM      7  N   UNL     1      33.234 -23.324 -16.374  0.00  0.00    -0.178 N 
ATOM      8  N   UNL     1      31.049 -22.685 -17.186  0.00  0.00    -0.306 NA
ATOM      9  N   UNL     1      29.173 -22.845 -15.821  0.00  0.00    -0.332 N 
ATOM     10  C   UNL     1      32.657 -23.648 -15.154  0.00  0.00    +0.083 C 
ATOM     11  C   UNL     1      32.407 -22.828 -17.417  0.00  0.00    +0.276 C 
ATOM     12  C   UNL     1      31.354 -23.516 -14.911  0.00  0.00    +0.065 C 
ATOM     13  C   UNL     1      30.525 -22.996 -16.030  0.00  0.00    +0.193 C 
ATOM     14  H   UNL     1      28.598 -22.503 -16.543  0.00  0.00    +0.145 HD
ATOM     15  H   UNL     1      28.780 -23.081 -14.949  0.00  0.00    +0.145 HD
ENDBRANCH   5   7
BRANCH   2  16
ATOM     16  O   UNL     1      37.549 -23.110 -16.921  0.00  0.00    -0.379 OA
ATOM     17  H   UNL     1      38.073 -22.297 -16.986  0.00  0.00    +0.211 HD
ENDBRANCH   2  16
BRANCH   3  18
ATOM     18  O   UNL     1      34.972 -21.988 -14.664  0.00  0.00    -0.378 OA
ATOM     19  H   UNL     1      34.487 -21.154 -14.765  0.00  0.00    +0.211 HD
ENDBRANCH   3  18
BRANCH   4  20
ATOM     20  C   UNL     1      36.349 -24.835 -13.889  0.00  0.00    +0.186 C 
BRANCH  20  21
ATOM     21  O   UNL     1      36.575 -23.629 -13.179  0.00  0.00    -0.271 OA
BRANCH  21  22
ATOM     22  P   UNL     1      37.629 -23.641 -11.951  0.00  0.00    +0.473 P 
ATOM     23  O   UNL     1      37.151 -24.339 -10.713  0.00  0.00    -0.227 OA
BRANCH  22  24
ATOM     24  O   UNL     1      38.015 -22.082 -11.761  0.00  0.00    -0.303 OA
ATOM     25  H   UNL     1      37.482 -21.542 -12.365  0.00  0.00    +0.222 HD
ENDBRANCH  22  24
BRANCH  22  26
ATOM     26  O   UNL     1      38.958 -24.274 -12.622  0.00  0.00    -0.303 OA
ATOM     27  H   UNL     1      39.514 -23.560 -12.974  0.00  0.00    +0.222 HD
ENDBRANCH  22  26
ENDBRANCH  21  22
ENDBRANCH  20  21
ENDBRANCH   4  20
TORSDOF 8
ENDMDL
