MODEL 1
REMARK VINA RESULT:      -5.3      0.000      0.000
REMARK  Name = 8988
REMARK  2 active torsions:
REMARK  status: ('A' for Active; 'I' for Inactive)
REMARK    1  A    between atoms: CA_2  and  C_9
REMARK    2  A    between atoms: C_9  and  O_10
REMARK                            x       y       z     vdW  Elec       q    Type
REMARK                         _______ _______ _______ _____ _____    ______ ____
ROOT
ATOM      1  N   PRO A   1      37.932 -25.630 -15.329  0.00  0.00    +0.392 N 
ATOM      2  CA  PRO A   1      38.938 -25.845 -14.289  0.00  0.00    +0.040 C 
ATOM      3  CB  PRO A   1      38.514 -24.992 -13.099  0.00  0.00    -0.013 C 
ATOM      4  CG  PRO A   1      37.254 -24.279 -13.566  0.00  0.00    -0.025 C 
ATOM      5  CD  PRO A   1      36.718 -25.196 -14.645  0.00  0.00    -0.081 C 
ATOM      6  H1  PRO A   1      37.760 -26.497 -15.838  0.00  0.00    -0.084 HD
ATOM      7  H2  PRO A   1      38.244 -24.933 -16.005  0.00  0.00    -0.084 HD
ENDROOT
BRANCH   2   9
ATOM      8  OXT PRO A   1      41.036 -24.656 -14.312  0.00  0.00    -0.253 OA
ATOM      9  C   PRO A   1      40.245 -25.408 -14.863  0.00  0.00    +0.293 C 
BRANCH   9  10
ATOM     10  O   PRO A   1      40.438 -25.956 -16.088  0.00  0.00    -0.482 OA
ATOM     11  H   PRO A   1      40.536 -25.404 -16.838  0.00  0.00    +0.295 HD
ENDBRANCH   9  10
ENDBRANCH   2   9
TORSDOF 2
ENDMDL
MODEL 2
REMARK VINA RESULT:      -5.2      9.658     10.767
REMARK  Name = 8988
REMARK  2 active torsions:
REMARK  status: ('A' for Active; 'I' for Inactive)
REMARK    1  A    between atoms: CA_2  and  C_9
REMARK    2  A    between atoms: C_9  and  O_10
REMARK                            x       y       z     vdW  Elec       q    Type
REMARK                         _______ _______ _______ _____ _____    ______ ____
ROOT
ATOM      1  N   PRO A   1      30.181 -22.618 -16.827  0.00  0.00    +0.392 N 
ATOM      2  CA  PRO A   1      28.919 -22.703 -16.095  0.00  0.00    +0.040 C 
ATOM      3  CB  PRO A   1      28.980 -23.991 -15.281  0.00  0.00    -0.013 C 
ATOM      4  CG  PRO A   1      30.322 -24.611 -15.644  0.00  0.00    -0.025 C 
ATOM      5  CD  PRO A   1      31.147 -23.419 -16.081  0.00  0.00    -0.081 C 
ATOM      6  H1  PRO A   1      30.494 -21.649 -16.881  0.00  0.00    -0.084 HD
ATOM      7  H2  PRO A   1      30.078 -22.961 -17.783  0.00  0.00    -0.084 HD
ENDROOT
BRANCH   2   9
ATOM      8  OXT PRO A   1      27.517 -23.711 -17.779  0.00  0.00    -0.253 OA
ATOM      9  C   PRO A   1      27.833 -22.732 -17.119  0.00  0.00    +0.293 C 
BRANCH   9  10
ATOM     10  O   PRO A   1      27.241 -21.516 -17.223  0.00  0.00    -0.482 OA
ATOM     11  H   PRO A   1      26.503 -21.402 -17.789  0.00  0.00    +0.295 HD
ENDBRANCH   9  10
ENDBRANCH   2   9
TORSDOF 2
ENDMDL
MODEL 3
REMARK VINA RESULT:      -5.1     11.337     11.780
REMARK  Name = 8988
REMARK  2 active torsions:
REMARK  status: ('A' for Active; 'I' for Inactive)
REMARK    1  A    between atoms: CA_2  and  C_9
REMARK    2  A    between atoms: C_9  and  O_10
REMARK                            x       y       z     vdW  Elec       q    Type
REMARK                         _______ _______ _______ _____ _____    ______ ____
ROOT
ATOM      1  N   PRO A   1      41.943 -13.004 -15.951  0.00  0.00    +0.392 N 
ATOM      2  CA  PRO A   1      41.884 -14.461 -15.843  0.00  0.00    +0.040 C 
ATOM      3  CB  PRO A   1      41.438 -14.975 -17.207  0.00  0.00    -0.013 C 
ATOM      4  CG  PRO A   1      41.223 -13.720 -18.039  0.00  0.00    -0.025 C 
ATOM      5  CD  PRO A   1      42.120 -12.702 -17.368  0.00  0.00    -0.081 C 
ATOM      6  H1  PRO A   1      42.730 -12.642 -15.412  0.00  0.00    -0.084 HD
ATOM      7  H2  PRO A   1      41.094 -12.572 -15.585  0.00  0.00    -0.084 HD
ENDROOT
BRANCH   2   9
ATOM      8  OXT PRO A   1      40.786 -14.157 -13.718  0.00  0.00    -0.253 OA
ATOM      9  C   PRO A   1      40.894 -14.769 -14.769  0.00  0.00    +0.293 C 
BRANCH   9  10
ATOM     10  O   PRO A   1      40.126 -15.832 -15.117  0.00  0.00    -0.482 OA
ATOM     11  H   PRO A   1      39.307 -15.696 -15.550  0.00  0.00    +0.295 HD
ENDBRANCH   9  10
ENDBRANCH   2   9
TORSDOF 2
ENDMDL
MODEL 4
REMARK VINA RESULT:      -5.0      2.241      2.853
REMARK  Name = 8988
REMARK  2 active torsions:
REMARK  status: ('A' for Active; 'I' for Inactive)
REMARK    1  A    between atoms: CA_2  and  C_9
REMARK    2  A    between atoms: C_9  and  O_10
REMARK                            x       y       z     vdW  Elec       q    Type
REMARK                         _______ _______ _______ _____ _____    ______ ____
ROOT
ATOM      1  N   PRO A   1      36.068 -25.554 -13.198  0.00  0.00    +0.392 N 
ATOM      2  CA  PRO A   1      37.199 -26.410 -13.551  0.00  0.00    +0.040 C 
ATOM      3  CB  PRO A   1      38.439 -25.751 -12.958  0.00  0.00    -0.013 C 
ATOM      4  CG  PRO A   1      37.921 -24.478 -12.303  0.00  0.00    -0.025 C 
ATOM      5  CD  PRO A   1      36.472 -24.804 -12.012  0.00  0.00    -0.081 C 
ATOM      6  H1  PRO A   1      35.246 -26.121 -12.994  0.00  0.00    -0.084 HD
ATOM      7  H2  PRO A   1      35.826 -24.927 -13.966  0.00  0.00    -0.084 HD
ENDROOT
BRANCH   2   9
ATOM      8  OXT PRO A   1      36.319 -26.810 -15.760  0.00  0.00    -0.253 OA
ATOM      9  C   PRO A   1      37.245 -26.464 -15.042  0.00  0.00    +0.293 C 
BRANCH   9  10
ATOM     10  O   PRO A   1      38.463 -26.078 -15.497  0.00  0.00    -0.482 OA
ATOM     11  H   PRO A   1      38.786 -26.411 -16.311  0.00  0.00    +0.295 HD
ENDBRANCH   9  10
ENDBRANCH   2   9
TORSDOF 2
ENDMDL
MODEL 5
REMARK VINA RESULT:      -4.9      9.615     10.260
REMARK  Name = 8988
REMARK  2 active torsions:
REMARK  status: ('A' for Active; 'I' for Inactive)
REMARK    1  A    between atoms: CA_2  and  C_9
REMARK    2  A    between atoms: C_9  and  O_10
REMARK                            x       y       z     vdW  Elec       q    Type
REMARK                         _______ _______ _______ _____ _____    ______ ____
ROOT
ATOM      1  N   PRO A   1      29.101 -24.307 -15.066  0.00  0.00    +0.392 N 
ATOM      2  CA  PRO A   1      29.499 -23.811 -16.383  0.00  0.00    +0.040 C 
ATOM      3  CB  PRO A   1      30.722 -22.929 -16.158  0.00  0.00    -0.013 C 
ATOM      4  CG  PRO A   1      30.936 -22.946 -14.651  0.00  0.00    -0.025 C 
ATOM      5  CD  PRO A   1      30.292 -24.248 -14.225  0.00  0.00    -0.081 C 
ATOM      6  H1  PRO A   1      28.766 -25.268 -15.137  0.00  0.00    -0.084 HD
ATOM      7  H2  PRO A   1      28.344 -23.746 -14.674  0.00  0.00    -0.084 HD
ENDROOT
BRANCH   2   9
ATOM      8  OXT PRO A   1      28.124 -21.857 -16.708  0.00  0.00    -0.253 OA
ATOM      9  C   PRO A   1      28.337 -23.042 -16.918  0.00  0.00    +0.293 C 
BRANCH   9  10
ATOM     10  O   PRO A   1      27.541 -23.840 -17.672  0.00  0.00    -0.482 OA
ATOM     11  H   PRO A   1      27.922 -24.441 -18.281  0.00  0.00    +0.295 HD
ENDBRANCH   9  10
ENDBRANCH   2   9
TORSDOF 2
ENDMDL
MODEL 6
REMARK VINA RESULT:      -4.9      4.000      4.660
REMARK  Name = 8988
REMARK  2 active torsions:
REMARK  status: ('A' for Active; 'I' for Inactive)
REMARK    1  A    between atoms: CA_2  and  C_9
REMARK    2  A    between atoms: C_9  and  O_10
REMARK                            x       y       z     vdW  Elec       q    Type
REMARK                         _______ _______ _______ _____ _____    ______ ____
ROOT
ATOM      1  N   PRO A   1      35.843 -23.269 -13.083  0.00  0.00    +0.392 N 
ATOM      2  CA  PRO A   1      36.619 -23.409 -11.852  0.00  0.00    +0.040 C 
ATOM      3  CB  PRO A   1      37.930 -24.080 -12.245  0.00  0.00    -0.013 C 
ATOM      4  CG  PRO A   1      37.802 -24.327 -13.741  0.00  0.00    -0.025 C 
ATOM      5  CD  PRO A   1      36.805 -23.277 -14.181  0.00  0.00    -0.081 C 
ATOM      6  H1  PRO A   1      35.324 -22.391 -13.075  0.00  0.00    -0.084 HD
ATOM      7  H2  PRO A   1      35.165 -24.026 -13.180  0.00  0.00    -0.084 HD
ENDROOT
BRANCH   2   9
ATOM      8  OXT PRO A   1      35.927 -24.281  -9.713  0.00  0.00    -0.253 OA
ATOM      9  C   PRO A   1      35.805 -24.254 -10.929  0.00  0.00    +0.293 C 
BRANCH   9  10
ATOM     10  O   PRO A   1      34.909 -24.997 -11.624  0.00  0.00    -0.482 OA
ATOM     11  H   PRO A   1      35.204 -25.716 -12.148  0.00  0.00    +0.295 HD
ENDBRANCH   9  10
ENDBRANCH   2   9
TORSDOF 2
ENDMDL
MODEL 7
REMARK VINA RESULT:      -4.8      6.415      7.045
REMARK  Name = 8988
REMARK  2 active torsions:
REMARK  status: ('A' for Active; 'I' for Inactive)
REMARK    1  A    between atoms: CA_2  and  C_9
REMARK    2  A    between atoms: C_9  and  O_10
REMARK                            x       y       z     vdW  Elec       q    Type
REMARK                         _______ _______ _______ _____ _____    ______ ____
ROOT
ATOM      1  N   PRO A   1      36.430 -20.280 -19.644  0.00  0.00    +0.392 N 
ATOM      2  CA  PRO A   1      36.280 -21.661 -19.190  0.00  0.00    +0.040 C 
ATOM      3  CB  PRO A   1      34.823 -22.037 -19.432  0.00  0.00    -0.013 C 
ATOM      4  CG  PRO A   1      34.190 -20.776 -20.003  0.00  0.00    -0.025 C 
ATOM      5  CD  PRO A   1      35.366 -20.047 -20.616  0.00  0.00    -0.081 C 
ATOM      6  H1  PRO A   1      37.342 -20.149 -20.081  0.00  0.00    -0.084 HD
ATOM      7  H2  PRO A   1      36.366 -19.625 -18.864  0.00  0.00    -0.084 HD
ENDROOT
BRANCH   2   9
ATOM      8  OXT PRO A   1      36.396 -22.591 -16.968  0.00  0.00    -0.253 OA
ATOM      9  C   PRO A   1      36.634 -21.674 -17.740  0.00  0.00    +0.293 C 
BRANCH   9  10
ATOM     10  O   PRO A   1      37.257 -20.522 -17.388  0.00  0.00    -0.482 OA
ATOM     11  H   PRO A   1      38.191 -20.500 -17.309  0.00  0.00    +0.295 HD
ENDBRANCH   9  10
ENDBRANCH   2   9
TORSDOF 2
ENDMDL
MODEL 8
REMARK VINA RESULT:      -4.7     11.083     11.551
REMARK  Name = 8988
REMARK  2 active torsions:
REMARK  status: ('A' for Active; 'I' for Inactive)
REMARK    1  A    between atoms: CA_2  and  C_9
REMARK    2  A    between atoms: C_9  and  O_10
REMARK                            x       y       z     vdW  Elec       q    Type
REMARK                         _______ _______ _______ _____ _____    ______ ____
ROOT
ATOM      1  N   PRO A   1      43.446 -14.560 -16.901  0.00  0.00    +0.392 N 
ATOM      2  CA  PRO A   1      42.198 -15.208 -17.299  0.00  0.00    +0.040 C 
ATOM      3  CB  PRO A   1      41.246 -14.091 -17.710  0.00  0.00    -0.013 C 
ATOM      4  CG  PRO A   1      42.033 -12.810 -17.475  0.00  0.00    -0.025 C 
ATOM      5  CD  PRO A   1      43.473 -13.266 -17.575  0.00  0.00    -0.081 C 
ATOM      6  H1  PRO A   1      44.245 -15.125 -17.190  0.00  0.00    -0.084 HD
ATOM      7  H2  PRO A   1      43.498 -14.450 -15.888  0.00  0.00    -0.084 HD
ENDROOT
BRANCH   2   9
ATOM      8  OXT PRO A   1      42.348 -16.803 -15.496  0.00  0.00    -0.253 OA
ATOM      9  C   PRO A   1      41.708 -15.960 -16.106  0.00  0.00    +0.293 C 
BRANCH   9  10
ATOM     10  O   PRO A   1      40.444 -15.582 -15.789  0.00  0.00    -0.482 OA
ATOM     11  H   PRO A   1      39.823 -16.221 -15.500  0.00  0.00    +0.295 HD
ENDBRANCH   9  10
ENDBRANCH   2   9
TORSDOF 2
ENDMDL
MODEL 9
REMARK VINA RESULT:      -4.7     11.731     12.291
REMARK  Name = 8988
REMARK  2 active torsions:
REMARK  status: ('A' for Active; 'I' for Inactive)
REMARK    1  A    between atoms: CA_2  and  C_9
REMARK    2  A    between atoms: C_9  and  O_10
REMARK                            x       y       z     vdW  Elec       q    Type
REMARK                         _______ _______ _______ _____ _____    ______ ____
ROOT
ATOM      1  N   PRO A   1      35.231 -16.675 -23.740  0.00  0.00    +0.392 N 
ATOM      2  CA  PRO A   1      35.678 -17.865 -23.018  0.00  0.00    +0.040 C 
ATOM      3  CB  PRO A   1      35.052 -19.059 -23.729  0.00  0.00    -0.013 C 
ATOM      4  CG  PRO A   1      34.217 -18.447 -24.845  0.00  0.00    -0.025 C 
ATOM      5  CD  PRO A   1      34.890 -17.114 -25.089  0.00  0.00    -0.081 C 
ATOM      6  H1  PRO A   1      35.977 -15.980 -23.773  0.00  0.00    -0.084 HD
ATOM      7  H2  PRO A   1      34.429 -16.243 -23.279  0.00  0.00    -0.084 HD
ENDROOT
BRANCH   2   9
ATOM      8  OXT PRO A   1      35.721 -18.216 -20.632  0.00  0.00    -0.253 OA
ATOM      9  C   PRO A   1      35.188 -17.722 -21.615  0.00  0.00    +0.293 C 
BRANCH   9  10
ATOM     10  O   PRO A   1      34.061 -16.969 -21.575  0.00  0.00    -0.482 OA
ATOM     11  H   PRO A   1      34.035 -16.142 -22.015  0.00  0.00    +0.295 HD
ENDBRANCH   9  10
ENDBRANCH   2   9
TORSDOF 2
ENDMDL
