MODEL 1
REMARK VINA RESULT:     -12.0      0.000      0.000
REMARK  Name = 5497056
REMARK  11 active torsions:
REMARK  status: ('A' for Active; 'I' for Inactive)
REMARK    1  A    between atoms: N_2  and  C_22
REMARK    2  A    between atoms: C_3  and  C_5
REMARK    3  A    between atoms: C_8  and  C_11
REMARK    4  A    between atoms: C_13  and  C_17
REMARK    5  A    between atoms: C_17  and  N_18
REMARK    6  A    between atoms: C_22  and  C_24
REMARK    7  A    between atoms: C_24  and  C_26
REMARK    8  A    between atoms: C_24  and  C_29
REMARK    9  A    between atoms: C_26  and  O_27
REMARK   10  A    between atoms: C_29  and  C_30
REMARK   11  A    between atoms: C_33  and  C_38
REMARK                            x       y       z     vdW  Elec       q    Type
REMARK                         _______ _______ _______ _____ _____    ______ ____
ROOT
ATOM      1  O   UNL     1      33.779 -24.087 -19.109  0.00  0.00    -0.270 OA
ATOM      2  N   UNL     1      33.557 -22.690 -17.272  0.00  0.00    -0.302 N 
ATOM      3  C   UNL     1      33.748 -22.963 -18.618  0.00  0.00    +0.246 C 
ATOM      4  H   UNL     1      33.550 -21.751 -16.975  0.00  0.00    +0.150 HD
ENDROOT
BRANCH   3   5
ATOM      5  C   UNL     1      33.954 -21.782 -19.495  0.00  0.00    +0.053 C 
ATOM      6  C   UNL     1      35.241 -21.429 -19.900  0.00  0.00    +0.005 C 
ATOM      7  C   UNL     1      32.859 -21.025 -19.915  0.00  0.00    +0.005 C 
ATOM      8  C   UNL     1      34.340 -19.564 -21.144  0.00  0.00    -0.000 C 
ATOM      9  C   UNL     1      35.434 -20.320 -20.724  0.00  0.00    +0.000 C 
ATOM     10  C   UNL     1      33.053 -19.917 -20.740  0.00  0.00    +0.000 C 
BRANCH   8  11
ATOM     11  C   UNL     1      34.542 -18.415 -22.000  0.00  0.00    -0.000 C 
ATOM     12  C   UNL     1      34.374 -17.128 -21.491  0.00  0.00    -0.006 C 
ATOM     13  C   UNL     1      34.569 -16.021 -22.317  0.00  0.00    -0.044 C 
ATOM     14  C   UNL     1      34.905 -18.596 -23.335  0.00  0.00    -0.000 C 
ATOM     15  C   UNL     1      34.931 -16.202 -23.651  0.00  0.00    -0.006 C 
ATOM     16  C   UNL     1      35.100 -17.489 -24.160  0.00  0.00    -0.000 C 
BRANCH  13  17
ATOM     17  C   UNL     1      34.390 -14.644 -21.772  0.00  0.00    -0.059 C 
BRANCH  17  18
ATOM     18  N   UNL     1      34.295 -13.635 -22.828  0.00  0.00    +0.383 N 
ATOM     19  H   UNL     1      33.336 -13.289 -22.882  0.00  0.00    -0.089 HD
ATOM     20  H   UNL     1      34.557 -14.050 -23.722  0.00  0.00    -0.089 HD
ATOM     21  H   UNL     1      34.925 -12.861 -22.615  0.00  0.00    -0.089 HD
ENDBRANCH  17  18
ENDBRANCH  13  17
ENDBRANCH   8  11
ENDBRANCH   3   5
BRANCH   2  22
ATOM     22  C   UNL     1      33.369 -23.732 -16.289  0.00  0.00    +0.083 C 
ATOM     23  C   UNL     1      32.025 -23.553 -15.585  0.00  0.00    +0.022 C 
BRANCH  22  24
ATOM     24  C   UNL     1      34.546 -23.828 -15.293  0.00  0.00    +0.121 C 
BRANCH  24  26
ATOM     25  O   UNL     1      35.764 -21.764 -14.850  0.00  0.00    -0.250 OA
ATOM     26  C   UNL     1      35.588 -22.746 -15.559  0.00  0.00    +0.319 C 
BRANCH  26  27
ATOM     27  O   UNL     1      36.280 -23.045 -16.697  0.00  0.00    -0.444 OA
ATOM     28  C   UNL     1      37.285 -22.098 -17.073  0.00  0.00    +0.256 C 
ENDBRANCH  26  27
ENDBRANCH  24  26
BRANCH  24  29
ATOM     29  C   UNL     1      35.214 -25.218 -15.319  0.00  0.00    +0.039 C 
BRANCH  29  30
ATOM     30  C   UNL     1      36.429 -25.302 -14.423  0.00  0.00    -0.021 C 
ATOM     31  C   UNL     1      37.669 -25.642 -14.961  0.00  0.00    -0.002 C 
ATOM     32  C   UNL     1      36.308 -25.040 -13.058  0.00  0.00    -0.004 C 
ATOM     33  C   UNL     1      38.791 -25.721 -14.134  0.00  0.00    +0.030 C 
ATOM     34  C   UNL     1      37.429 -25.120 -12.231  0.00  0.00    -0.000 C 
ATOM     35  C   UNL     1      38.670 -25.459 -12.768  0.00  0.00    +0.003 C 
BRANCH  33  38
ATOM     36  N   UNL     1      41.043 -26.748 -13.936  0.00  0.00    -0.343 N 
ATOM     37  N   UNL     1      40.370 -25.760 -15.945  0.00  0.00    -0.285 NA
ATOM     38  C   UNL     1      40.084 -26.077 -14.694  0.00  0.00    +0.117 C 
ATOM     39  H   UNL     1      41.913 -26.978 -14.335  0.00  0.00    +0.144 HD
ATOM     40  H   UNL     1      40.850 -26.989 -13.001  0.00  0.00    +0.144 HD
ATOM     41  H   UNL     1      41.245 -26.000 -16.325  0.00  0.00    +0.188 HD
ENDBRANCH  33  38
ENDBRANCH  29  30
ENDBRANCH  24  29
ENDBRANCH  22  24
ENDBRANCH   2  22
TORSDOF 11
ENDMDL
MODEL 2
REMARK VINA RESULT:     -11.6      6.377     14.549
REMARK  Name = 5497056
REMARK  11 active torsions:
REMARK  status: ('A' for Active; 'I' for Inactive)
REMARK    1  A    between atoms: N_2  and  C_22
REMARK    2  A    between atoms: C_3  and  C_5
REMARK    3  A    between atoms: C_8  and  C_11
REMARK    4  A    between atoms: C_13  and  C_17
REMARK    5  A    between atoms: C_17  and  N_18
REMARK    6  A    between atoms: C_22  and  C_24
REMARK    7  A    between atoms: C_24  and  C_26
REMARK    8  A    between atoms: C_24  and  C_29
REMARK    9  A    between atoms: C_26  and  O_27
REMARK   10  A    between atoms: C_29  and  C_30
REMARK   11  A    between atoms: C_33  and  C_38
REMARK                            x       y       z     vdW  Elec       q    Type
REMARK                         _______ _______ _______ _____ _____    ______ ____
ROOT
ATOM      1  O   UNL     1      33.007 -14.009 -25.225  0.00  0.00    -0.270 OA
ATOM      2  N   UNL     1      33.837 -12.702 -23.499  0.00  0.00    -0.302 N 
ATOM      3  C   UNL     1      33.555 -13.903 -24.131  0.00  0.00    +0.246 C 
ATOM      4  H   UNL     1      34.279 -12.722 -22.619  0.00  0.00    +0.150 HD
ENDROOT
BRANCH   3   5
ATOM      5  C   UNL     1      33.934 -15.131 -23.388  0.00  0.00    +0.053 C 
ATOM      6  C   UNL     1      34.529 -16.199 -24.061  0.00  0.00    +0.005 C 
ATOM      7  C   UNL     1      33.696 -15.219 -22.016  0.00  0.00    +0.005 C 
ATOM      8  C   UNL     1      34.648 -17.440 -21.991  0.00  0.00    -0.000 C 
ATOM      9  C   UNL     1      34.885 -17.353 -23.363  0.00  0.00    +0.000 C 
ATOM     10  C   UNL     1      34.053 -16.373 -21.318  0.00  0.00    +0.000 C 
BRANCH   8  11
ATOM     11  C   UNL     1      35.019 -18.637 -21.268  0.00  0.00    -0.000 C 
ATOM     12  C   UNL     1      34.031 -19.491 -20.779  0.00  0.00    -0.006 C 
ATOM     13  C   UNL     1      34.390 -20.645 -20.082  0.00  0.00    -0.044 C 
ATOM     14  C   UNL     1      36.366 -18.936 -21.063  0.00  0.00    -0.000 C 
ATOM     15  C   UNL     1      35.737 -20.944 -19.875  0.00  0.00    -0.006 C 
ATOM     16  C   UNL     1      36.725 -20.090 -20.366  0.00  0.00    -0.000 C 
BRANCH  13  17
ATOM     17  C   UNL     1      33.334 -21.559 -19.559  0.00  0.00    -0.059 C 
BRANCH  17  18
ATOM     18  N   UNL     1      33.792 -22.946 -19.468  0.00  0.00    +0.383 N 
ATOM     19  H   UNL     1      34.808 -22.975 -19.556  0.00  0.00    -0.089 HD
ATOM     20  H   UNL     1      33.370 -23.494 -20.217  0.00  0.00    -0.089 HD
ATOM     21  H   UNL     1      33.517 -23.335 -18.566  0.00  0.00    -0.089 HD
ENDBRANCH  17  18
ENDBRANCH  13  17
ENDBRANCH   8  11
ENDBRANCH   3   5
BRANCH   2  22
ATOM     22  C   UNL     1      33.506 -11.422 -24.082  0.00  0.00    +0.083 C 
ATOM     23  C   UNL     1      34.749 -10.794 -24.709  0.00  0.00    +0.022 C 
BRANCH  22  24
ATOM     24  C   UNL     1      32.811 -10.475 -23.079  0.00  0.00    +0.121 C 
BRANCH  24  26
ATOM     25  O   UNL     1      30.519 -11.134 -22.577  0.00  0.00    -0.250 OA
ATOM     26  C   UNL     1      31.711 -11.195 -22.306  0.00  0.00    +0.319 C 
BRANCH  26  27
ATOM     27  O   UNL     1      32.261 -11.906 -21.280  0.00  0.00    -0.444 OA
ATOM     28  C   UNL     1      31.687 -11.671 -19.990  0.00  0.00    +0.256 C 
ENDBRANCH  26  27
ENDBRANCH  24  26
BRANCH  24  29
ATOM     29  C   UNL     1      32.233  -9.223 -23.771  0.00  0.00    +0.039 C 
BRANCH  29  30
ATOM     30  C   UNL     1      32.093  -8.047 -22.833  0.00  0.00    -0.021 C 
ATOM     31  C   UNL     1      31.537  -6.853 -23.290  0.00  0.00    -0.002 C 
ATOM     32  C   UNL     1      32.522  -8.155 -21.510  0.00  0.00    -0.004 C 
ATOM     33  C   UNL     1      31.409  -5.766 -22.425  0.00  0.00    +0.030 C 
ATOM     34  C   UNL     1      32.395  -7.068 -20.644  0.00  0.00    -0.000 C 
ATOM     35  C   UNL     1      31.839  -5.874 -21.101  0.00  0.00    +0.003 C 
BRANCH  33  38
ATOM     36  N   UNL     1      30.782  -4.216 -24.261  0.00  0.00    -0.343 N 
ATOM     37  N   UNL     1      30.343  -3.647 -22.037  0.00  0.00    -0.285 NA
ATOM     38  C   UNL     1      30.831  -4.520 -22.901  0.00  0.00    +0.117 C 
ATOM     39  H   UNL     1      30.387  -3.366 -24.562  0.00  0.00    +0.144 HD
ATOM     40  H   UNL     1      31.144  -4.852 -24.921  0.00  0.00    +0.144 HD
ATOM     41  H   UNL     1      29.952  -2.803 -22.358  0.00  0.00    +0.188 HD
ENDBRANCH  33  38
ENDBRANCH  29  30
ENDBRANCH  24  29
ENDBRANCH  22  24
ENDBRANCH   2  22
TORSDOF 11
ENDMDL
MODEL 3
REMARK VINA RESULT:     -11.4      5.358      9.779
REMARK  Name = 5497056
REMARK  11 active torsions:
REMARK  status: ('A' for Active; 'I' for Inactive)
REMARK    1  A    between atoms: N_2  and  C_22
REMARK    2  A    between atoms: C_3  and  C_5
REMARK    3  A    between atoms: C_8  and  C_11
REMARK    4  A    between atoms: C_13  and  C_17
REMARK    5  A    between atoms: C_17  and  N_18
REMARK    6  A    between atoms: C_22  and  C_24
REMARK    7  A    between atoms: C_24  and  C_26
REMARK    8  A    between atoms: C_24  and  C_29
REMARK    9  A    between atoms: C_26  and  O_27
REMARK   10  A    between atoms: C_29  and  C_30
REMARK   11  A    between atoms: C_33  and  C_38
REMARK                            x       y       z     vdW  Elec       q    Type
REMARK                         _______ _______ _______ _____ _____    ______ ____
ROOT
ATOM      1  O   UNL     1      32.879 -14.661 -24.809  0.00  0.00    -0.270 OA
ATOM      2  N   UNL     1      34.557 -14.651 -23.209  0.00  0.00    -0.302 N 
ATOM      3  C   UNL     1      33.523 -14.083 -23.938  0.00  0.00    +0.246 C 
ATOM      4  H   UNL     1      35.014 -14.103 -22.530  0.00  0.00    +0.150 HD
ENDROOT
BRANCH   3   5
ATOM      5  C   UNL     1      33.219 -12.662 -23.633  0.00  0.00    +0.053 C 
ATOM      6  C   UNL     1      33.859 -11.644 -24.340  0.00  0.00    +0.005 C 
ATOM      7  C   UNL     1      32.292 -12.343 -22.640  0.00  0.00    +0.005 C 
ATOM      8  C   UNL     1      32.647  -9.991 -23.061  0.00  0.00    -0.000 C 
ATOM      9  C   UNL     1      33.574 -10.309 -24.054  0.00  0.00    +0.000 C 
ATOM     10  C   UNL     1      32.006 -11.009 -22.354  0.00  0.00    +0.000 C 
BRANCH   8  11
ATOM     11  C   UNL     1      32.351  -8.606 -22.766  0.00  0.00    -0.000 C 
ATOM     12  C   UNL     1      31.891  -7.760 -23.775  0.00  0.00    -0.006 C 
ATOM     13  C   UNL     1      31.606  -6.425 -23.490  0.00  0.00    -0.044 C 
ATOM     14  C   UNL     1      32.526  -8.117 -21.471  0.00  0.00    -0.000 C 
ATOM     15  C   UNL     1      31.781  -5.936 -22.195  0.00  0.00    -0.006 C 
ATOM     16  C   UNL     1      32.240  -6.782 -21.185  0.00  0.00    -0.000 C 
BRANCH  13  17
ATOM     17  C   UNL     1      31.113  -5.521 -24.568  0.00  0.00    -0.059 C 
BRANCH  17  18
ATOM     18  N   UNL     1      30.728  -4.203 -24.059  0.00  0.00    +0.383 N 
ATOM     19  H   UNL     1      31.350  -3.939 -23.295  0.00  0.00    -0.089 HD
ATOM     20  H   UNL     1      29.767  -4.236 -23.720  0.00  0.00    -0.089 HD
ATOM     21  H   UNL     1      30.800  -3.516 -24.810  0.00  0.00    -0.089 HD
ENDBRANCH  17  18
ENDBRANCH  13  17
ENDBRANCH   8  11
ENDBRANCH   3   5
BRANCH   2  22
ATOM     22  C   UNL     1      34.988 -16.015 -23.408  0.00  0.00    +0.083 C 
ATOM     23  C   UNL     1      34.684 -16.458 -24.838  0.00  0.00    +0.022 C 
BRANCH  22  24
ATOM     24  C   UNL     1      34.400 -16.982 -22.356  0.00  0.00    +0.121 C 
BRANCH  24  26
ATOM     25  O   UNL     1      35.034 -16.026 -20.205  0.00  0.00    -0.250 OA
ATOM     26  C   UNL     1      34.160 -16.276 -21.026  0.00  0.00    +0.319 C 
BRANCH  26  27
ATOM     27  O   UNL     1      32.836 -15.973 -20.899  0.00  0.00    -0.444 OA
ATOM     28  C   UNL     1      32.544 -14.792 -20.143  0.00  0.00    +0.256 C 
ENDBRANCH  26  27
ENDBRANCH  24  26
BRANCH  24  29
ATOM     29  C   UNL     1      35.299 -18.217 -22.140  0.00  0.00    +0.039 C 
BRANCH  29  30
ATOM     30  C   UNL     1      34.639 -19.280 -21.292  0.00  0.00    -0.021 C 
ATOM     31  C   UNL     1      35.409 -20.060 -20.430  0.00  0.00    -0.002 C 
ATOM     32  C   UNL     1      33.262 -19.483 -21.374  0.00  0.00    -0.004 C 
ATOM     33  C   UNL     1      34.801 -21.043 -19.648  0.00  0.00    +0.030 C 
ATOM     34  C   UNL     1      32.654 -20.466 -20.592  0.00  0.00    -0.000 C 
ATOM     35  C   UNL     1      33.422 -21.246 -19.729  0.00  0.00    +0.003 C 
BRANCH  33  38
ATOM     36  N   UNL     1      36.981 -21.676 -18.640  0.00  0.00    -0.343 N 
ATOM     37  N   UNL     1      35.026 -22.795 -18.019  0.00  0.00    -0.285 NA
ATOM     38  C   UNL     1      35.603 -21.858 -18.750  0.00  0.00    +0.117 C 
ATOM     39  H   UNL     1      37.505 -22.240 -18.026  0.00  0.00    +0.144 HD
ATOM     40  H   UNL     1      37.430 -20.985 -19.179  0.00  0.00    +0.144 HD
ATOM     41  H   UNL     1      35.567 -23.348 -17.410  0.00  0.00    +0.188 HD
ENDBRANCH  33  38
ENDBRANCH  29  30
ENDBRANCH  24  29
ENDBRANCH  22  24
ENDBRANCH   2  22
TORSDOF 11
ENDMDL
MODEL 4
REMARK VINA RESULT:     -11.2      1.785      2.380
REMARK  Name = 5497056
REMARK  11 active torsions:
REMARK  status: ('A' for Active; 'I' for Inactive)
REMARK    1  A    between atoms: N_2  and  C_22
REMARK    2  A    between atoms: C_3  and  C_5
REMARK    3  A    between atoms: C_8  and  C_11
REMARK    4  A    between atoms: C_13  and  C_17
REMARK    5  A    between atoms: C_17  and  N_18
REMARK    6  A    between atoms: C_22  and  C_24
REMARK    7  A    between atoms: C_24  and  C_26
REMARK    8  A    between atoms: C_24  and  C_29
REMARK    9  A    between atoms: C_26  and  O_27
REMARK   10  A    between atoms: C_29  and  C_30
REMARK   11  A    between atoms: C_33  and  C_38
REMARK                            x       y       z     vdW  Elec       q    Type
REMARK                         _______ _______ _______ _____ _____    ______ ____
ROOT
ATOM      1  O   UNL     1      33.897 -23.933 -19.387  0.00  0.00    -0.270 OA
ATOM      2  N   UNL     1      33.420 -22.571 -17.572  0.00  0.00    -0.302 N 
ATOM      3  C   UNL     1      33.749 -22.818 -18.896  0.00  0.00    +0.246 C 
ATOM      4  H   UNL     1      33.324 -21.637 -17.273  0.00  0.00    +0.150 HD
ENDROOT
BRANCH   3   5
ATOM      5  C   UNL     1      33.954 -21.618 -19.747  0.00  0.00    +0.053 C 
ATOM      6  C   UNL     1      32.857 -20.866 -20.169  0.00  0.00    +0.005 C 
ATOM      7  C   UNL     1      35.244 -21.242 -20.124  0.00  0.00    +0.005 C 
ATOM      8  C   UNL     1      34.340 -19.363 -21.345  0.00  0.00    -0.000 C 
ATOM      9  C   UNL     1      33.050 -19.739 -20.969  0.00  0.00    +0.000 C 
ATOM     10  C   UNL     1      35.436 -20.115 -20.923  0.00  0.00    +0.000 C 
BRANCH   8  11
ATOM     11  C   UNL     1      34.538 -18.193 -22.173  0.00  0.00    -0.000 C 
ATOM     12  C   UNL     1      34.347 -16.919 -21.639  0.00  0.00    -0.006 C 
ATOM     13  C   UNL     1      34.539 -15.792 -22.438  0.00  0.00    -0.044 C 
ATOM     14  C   UNL     1      34.922 -18.340 -23.506  0.00  0.00    -0.000 C 
ATOM     15  C   UNL     1      34.921 -15.939 -23.771  0.00  0.00    -0.006 C 
ATOM     16  C   UNL     1      35.113 -17.213 -24.305  0.00  0.00    -0.000 C 
BRANCH  13  17
ATOM     17  C   UNL     1      34.335 -14.430 -21.866  0.00  0.00    -0.059 C 
BRANCH  17  18
ATOM     18  N   UNL     1      34.222 -13.401 -22.902  0.00  0.00    +0.383 N 
ATOM     19  H   UNL     1      34.028 -13.844 -23.800  0.00  0.00    -0.089 HD
ATOM     20  H   UNL     1      35.096 -12.880 -22.961  0.00  0.00    -0.089 HD
ATOM     21  H   UNL     1      33.462 -12.764 -22.665  0.00  0.00    -0.089 HD
ENDBRANCH  17  18
ENDBRANCH  13  17
ENDBRANCH   8  11
ENDBRANCH   3   5
BRANCH   2  22
ATOM     22  C   UNL     1      33.213 -23.632 -16.614  0.00  0.00    +0.083 C 
ATOM     23  C   UNL     1      31.831 -23.502 -15.976  0.00  0.00    +0.022 C 
BRANCH  22  24
ATOM     24  C   UNL     1      34.340 -23.710 -15.561  0.00  0.00    +0.121 C 
BRANCH  24  26
ATOM     25  O   UNL     1      35.519 -21.626 -15.105  0.00  0.00    -0.250 OA
ATOM     26  C   UNL     1      35.392 -22.630 -15.794  0.00  0.00    +0.319 C 
BRANCH  26  27
ATOM     27  O   UNL     1      36.155 -22.957 -16.877  0.00  0.00    -0.444 OA
ATOM     28  C   UNL     1      37.169 -22.009 -17.225  0.00  0.00    +0.256 C 
ENDBRANCH  26  27
ENDBRANCH  24  26
BRANCH  24  29
ATOM     29  C   UNL     1      35.011 -25.099 -15.534  0.00  0.00    +0.039 C 
BRANCH  29  30
ATOM     30  C   UNL     1      35.954 -25.271 -14.365  0.00  0.00    -0.021 C 
ATOM     31  C   UNL     1      35.651 -24.691 -13.134  0.00  0.00    -0.002 C 
ATOM     32  C   UNL     1      37.128 -26.007 -14.519  0.00  0.00    -0.004 C 
ATOM     33  C   UNL     1      36.522 -24.848 -12.055  0.00  0.00    +0.030 C 
ATOM     34  C   UNL     1      38.000 -26.164 -13.441  0.00  0.00    -0.000 C 
ATOM     35  C   UNL     1      37.697 -25.585 -12.209  0.00  0.00    +0.003 C 
BRANCH  33  38
ATOM     36  N   UNL     1      36.794 -23.044 -10.371  0.00  0.00    -0.343 N 
ATOM     37  N   UNL     1      35.351 -24.835  -9.956  0.00  0.00    -0.285 NA
ATOM     38  C   UNL     1      36.207 -24.244 -10.771  0.00  0.00    +0.117 C 
ATOM     39  H   UNL     1      36.568 -22.653  -9.496  0.00  0.00    +0.144 HD
ATOM     40  H   UNL     1      37.438 -22.590 -10.962  0.00  0.00    +0.144 HD
ATOM     41  H   UNL     1      35.137 -24.427  -9.087  0.00  0.00    +0.188 HD
ENDBRANCH  33  38
ENDBRANCH  29  30
ENDBRANCH  24  29
ENDBRANCH  22  24
ENDBRANCH   2  22
TORSDOF 11
ENDMDL
MODEL 5
REMARK VINA RESULT:     -10.9      3.557     12.028
REMARK  Name = 5497056
REMARK  11 active torsions:
REMARK  status: ('A' for Active; 'I' for Inactive)
REMARK    1  A    between atoms: N_2  and  C_22
REMARK    2  A    between atoms: C_3  and  C_5
REMARK    3  A    between atoms: C_8  and  C_11
REMARK    4  A    between atoms: C_13  and  C_17
REMARK    5  A    between atoms: C_17  and  N_18
REMARK    6  A    between atoms: C_22  and  C_24
REMARK    7  A    between atoms: C_24  and  C_26
REMARK    8  A    between atoms: C_24  and  C_29
REMARK    9  A    between atoms: C_26  and  O_27
REMARK   10  A    between atoms: C_29  and  C_30
REMARK   11  A    between atoms: C_33  and  C_38
REMARK                            x       y       z     vdW  Elec       q    Type
REMARK                         _______ _______ _______ _____ _____    ______ ____
ROOT
ATOM      1  O   UNL     1      34.611 -19.513 -23.455  0.00  0.00    -0.270 OA
ATOM      2  N   UNL     1      34.437 -17.646 -22.091  0.00  0.00    -0.302 N 
ATOM      3  C   UNL     1      34.571 -19.003 -22.338  0.00  0.00    +0.246 C 
ATOM      4  H   UNL     1      34.414 -17.334 -21.157  0.00  0.00    +0.150 HD
ENDROOT
BRANCH   3   5
ATOM      5  C   UNL     1      34.643 -19.877 -21.139  0.00  0.00    +0.053 C 
ATOM      6  C   UNL     1      33.471 -20.365 -20.561  0.00  0.00    +0.005 C 
ATOM      7  C   UNL     1      35.881 -20.210 -20.590  0.00  0.00    +0.005 C 
ATOM      8  C   UNL     1      34.776 -21.519 -18.887  0.00  0.00    -0.000 C 
ATOM      9  C   UNL     1      33.538 -21.185 -19.435  0.00  0.00    +0.000 C 
ATOM     10  C   UNL     1      35.948 -21.030 -19.465  0.00  0.00    +0.000 C 
BRANCH   8  11
ATOM     11  C   UNL     1      34.844 -22.371 -17.719  0.00  0.00    -0.000 C 
ATOM     12  C   UNL     1      36.009 -22.414 -16.954  0.00  0.00    -0.006 C 
ATOM     13  C   UNL     1      36.073 -23.236 -15.829  0.00  0.00    -0.044 C 
ATOM     14  C   UNL     1      33.743 -23.148 -17.360  0.00  0.00    -0.000 C 
ATOM     15  C   UNL     1      34.972 -24.014 -15.469  0.00  0.00    -0.006 C 
ATOM     16  C   UNL     1      33.807 -23.970 -16.235  0.00  0.00    -0.000 C 
BRANCH  13  17
ATOM     17  C   UNL     1      37.318 -23.282 -15.009  0.00  0.00    -0.059 C 
BRANCH  17  18
ATOM     18  N   UNL     1      38.431 -23.914 -15.720  0.00  0.00    +0.383 N 
ATOM     19  H   UNL     1      38.187 -24.878 -15.945  0.00  0.00    -0.089 HD
ATOM     20  H   UNL     1      39.263 -23.902 -15.130  0.00  0.00    -0.089 HD
ATOM     21  H   UNL     1      38.618 -23.400 -16.582  0.00  0.00    -0.089 HD
ENDBRANCH  17  18
ENDBRANCH  13  17
ENDBRANCH   8  11
ENDBRANCH   3   5
BRANCH   2  22
ATOM     22  C   UNL     1      34.329 -16.672 -23.152  0.00  0.00    +0.083 C 
ATOM     23  C   UNL     1      35.525 -16.789 -24.096  0.00  0.00    +0.022 C 
BRANCH  22  24
ATOM     24  C   UNL     1      34.140 -15.233 -22.620  0.00  0.00    +0.121 C 
BRANCH  24  26
ATOM     25  O   UNL     1      34.965 -15.441 -20.336  0.00  0.00    -0.250 OA
ATOM     26  C   UNL     1      34.035 -15.214 -21.099  0.00  0.00    +0.319 C 
BRANCH  26  27
ATOM     27  O   UNL     1      32.756 -14.909 -20.730  0.00  0.00    -0.444 OA
ATOM     28  C   UNL     1      31.946 -16.023 -20.341  0.00  0.00    +0.256 C 
ENDBRANCH  26  27
ENDBRANCH  24  26
BRANCH  24  29
ATOM     29  C   UNL     1      32.907 -14.545 -23.240  0.00  0.00    +0.039 C 
BRANCH  29  30
ATOM     30  C   UNL     1      33.248 -13.719 -24.459  0.00  0.00    -0.021 C 
ATOM     31  C   UNL     1      33.970 -12.535 -24.318  0.00  0.00    -0.002 C 
ATOM     32  C   UNL     1      32.839 -14.140 -25.724  0.00  0.00    -0.004 C 
ATOM     33  C   UNL     1      34.284 -11.771 -25.443  0.00  0.00    +0.030 C 
ATOM     34  C   UNL     1      33.152 -13.376 -26.849  0.00  0.00    -0.000 C 
ATOM     35  C   UNL     1      33.875 -12.192 -26.709  0.00  0.00    +0.003 C 
BRANCH  33  38
ATOM     36  N   UNL     1      35.757  -9.995 -26.360  0.00  0.00    -0.343 N 
ATOM     37  N   UNL     1      35.046  -9.904 -24.136  0.00  0.00    -0.285 NA
ATOM     38  C   UNL     1      35.036 -10.535 -25.297  0.00  0.00    +0.117 C 
ATOM     39  H   UNL     1      36.260  -9.157 -26.239  0.00  0.00    +0.144 HD
ATOM     40  H   UNL     1      35.765 -10.452 -27.232  0.00  0.00    +0.144 HD
ATOM     41  H   UNL     1      35.554  -9.067 -24.035  0.00  0.00    +0.188 HD
ENDBRANCH  33  38
ENDBRANCH  29  30
ENDBRANCH  24  29
ENDBRANCH  22  24
ENDBRANCH   2  22
TORSDOF 11
ENDMDL
MODEL 6
REMARK VINA RESULT:     -10.8      3.843     12.264
REMARK  Name = 5497056
REMARK  11 active torsions:
REMARK  status: ('A' for Active; 'I' for Inactive)
REMARK    1  A    between atoms: N_2  and  C_22
REMARK    2  A    between atoms: C_3  and  C_5
REMARK    3  A    between atoms: C_8  and  C_11
REMARK    4  A    between atoms: C_13  and  C_17
REMARK    5  A    between atoms: C_17  and  N_18
REMARK    6  A    between atoms: C_22  and  C_24
REMARK    7  A    between atoms: C_24  and  C_26
REMARK    8  A    between atoms: C_24  and  C_29
REMARK    9  A    between atoms: C_26  and  O_27
REMARK   10  A    between atoms: C_29  and  C_30
REMARK   11  A    between atoms: C_33  and  C_38
REMARK                            x       y       z     vdW  Elec       q    Type
REMARK                         _______ _______ _______ _____ _____    ______ ____
ROOT
ATOM      1  O   UNL     1      34.443 -18.966 -23.974  0.00  0.00    -0.270 OA
ATOM      2  N   UNL     1      34.279 -17.142 -22.552  0.00  0.00    -0.302 N 
ATOM      3  C   UNL     1      34.411 -18.491 -22.843  0.00  0.00    +0.246 C 
ATOM      4  H   UNL     1      34.263 -16.859 -21.609  0.00  0.00    +0.150 HD
ENDROOT
BRANCH   3   5
ATOM      5  C   UNL     1      34.492 -19.401 -21.671  0.00  0.00    +0.053 C 
ATOM      6  C   UNL     1      35.736 -19.820 -21.198  0.00  0.00    +0.005 C 
ATOM      7  C   UNL     1      33.325 -19.837 -21.044  0.00  0.00    +0.005 C 
ATOM      8  C   UNL     1      34.645 -21.110 -19.470  0.00  0.00    -0.000 C 
ATOM      9  C   UNL     1      35.812 -20.674 -20.098  0.00  0.00    +0.000 C 
ATOM     10  C   UNL     1      33.402 -20.691 -19.944  0.00  0.00    +0.000 C 
BRANCH   8  11
ATOM     11  C   UNL     1      34.726 -21.995 -18.329  0.00  0.00    -0.000 C 
ATOM     12  C   UNL     1      35.893 -22.045 -17.566  0.00  0.00    -0.006 C 
ATOM     13  C   UNL     1      35.969 -22.899 -16.466  0.00  0.00    -0.044 C 
ATOM     14  C   UNL     1      33.636 -22.798 -17.992  0.00  0.00    -0.000 C 
ATOM     15  C   UNL     1      34.880 -23.702 -16.129  0.00  0.00    -0.006 C 
ATOM     16  C   UNL     1      33.713 -23.652 -16.891  0.00  0.00    -0.000 C 
BRANCH  13  17
ATOM     17  C   UNL     1      37.216 -22.952 -15.649  0.00  0.00    -0.059 C 
BRANCH  17  18
ATOM     18  N   UNL     1      37.622 -24.324 -15.339  0.00  0.00    +0.383 N 
ATOM     19  H   UNL     1      38.184 -24.328 -14.487  0.00  0.00    -0.089 HD
ATOM     20  H   UNL     1      38.172 -24.699 -16.111  0.00  0.00    -0.089 HD
ATOM     21  H   UNL     1      36.791 -24.900 -15.201  0.00  0.00    -0.089 HD
ENDBRANCH  17  18
ENDBRANCH  13  17
ENDBRANCH   8  11
ENDBRANCH   3   5
BRANCH   2  22
ATOM     22  C   UNL     1      34.163 -16.136 -23.582  0.00  0.00    +0.083 C 
ATOM     23  C   UNL     1      35.297 -16.286 -24.594  0.00  0.00    +0.022 C 
BRANCH  22  24
ATOM     24  C   UNL     1      34.076 -14.704 -23.006  0.00  0.00    +0.121 C 
BRANCH  24  26
ATOM     25  O   UNL     1      34.912 -14.810 -20.720  0.00  0.00    -0.250 OA
ATOM     26  C   UNL     1      33.961 -14.724 -21.486  0.00  0.00    +0.319 C 
BRANCH  26  27
ATOM     27  O   UNL     1      32.649 -14.635 -21.123  0.00  0.00    -0.444 OA
ATOM     28  C   UNL     1      32.140 -15.742 -20.371  0.00  0.00    +0.256 C 
ENDBRANCH  26  27
ENDBRANCH  24  26
BRANCH  24  29
ATOM     29  C   UNL     1      32.902 -13.908 -23.611  0.00  0.00    +0.039 C 
BRANCH  29  30
ATOM     30  C   UNL     1      33.202 -12.433 -23.745  0.00  0.00    -0.021 C 
ATOM     31  C   UNL     1      32.524 -11.509 -22.951  0.00  0.00    -0.002 C 
ATOM     32  C   UNL     1      34.155 -11.996 -24.665  0.00  0.00    -0.004 C 
ATOM     33  C   UNL     1      32.799 -10.147 -23.076  0.00  0.00    +0.030 C 
ATOM     34  C   UNL     1      34.430 -10.634 -24.790  0.00  0.00    -0.000 C 
ATOM     35  C   UNL     1      33.753  -9.709 -23.996  0.00  0.00    +0.003 C 
BRANCH  33  38
ATOM     36  N   UNL     1      32.221  -9.183 -20.861  0.00  0.00    -0.343 N 
ATOM     37  N   UNL     1      31.305  -8.283 -22.814  0.00  0.00    -0.285 NA
ATOM     38  C   UNL     1      32.092  -9.182 -22.249  0.00  0.00    +0.117 C 
ATOM     39  H   UNL     1      31.732  -8.522 -20.321  0.00  0.00    +0.144 HD
ATOM     40  H   UNL     1      32.800  -9.848 -20.421  0.00  0.00    +0.144 HD
ATOM     41  H   UNL     1      30.825  -7.630 -22.256  0.00  0.00    +0.188 HD
ENDBRANCH  33  38
ENDBRANCH  29  30
ENDBRANCH  24  29
ENDBRANCH  22  24
ENDBRANCH   2  22
TORSDOF 11
ENDMDL
MODEL 7
REMARK VINA RESULT:     -10.8      5.552     10.139
REMARK  Name = 5497056
REMARK  11 active torsions:
REMARK  status: ('A' for Active; 'I' for Inactive)
REMARK    1  A    between atoms: N_2  and  C_22
REMARK    2  A    between atoms: C_3  and  C_5
REMARK    3  A    between atoms: C_8  and  C_11
REMARK    4  A    between atoms: C_13  and  C_17
REMARK    5  A    between atoms: C_17  and  N_18
REMARK    6  A    between atoms: C_22  and  C_24
REMARK    7  A    between atoms: C_24  and  C_26
REMARK    8  A    between atoms: C_24  and  C_29
REMARK    9  A    between atoms: C_26  and  O_27
REMARK   10  A    between atoms: C_29  and  C_30
REMARK   11  A    between atoms: C_33  and  C_38
REMARK                            x       y       z     vdW  Elec       q    Type
REMARK                         _______ _______ _______ _____ _____    ______ ____
ROOT
ATOM      1  O   UNL     1      31.874 -14.392 -21.699  0.00  0.00    -0.270 OA
ATOM      2  N   UNL     1      33.937 -14.785 -22.683  0.00  0.00    -0.302 N 
ATOM      3  C   UNL     1      32.859 -13.994 -22.313  0.00  0.00    +0.246 C 
ATOM      4  H   UNL     1      34.682 -14.370 -23.176  0.00  0.00    +0.150 HD
ENDROOT
BRANCH   3   5
ATOM      5  C   UNL     1      32.927 -12.570 -22.731  0.00  0.00    +0.053 C 
ATOM      6  C   UNL     1      33.808 -12.180 -23.740  0.00  0.00    +0.005 C 
ATOM      7  C   UNL     1      32.111 -11.621 -22.114  0.00  0.00    +0.005 C 
ATOM      8  C   UNL     1      33.055  -9.895 -23.516  0.00  0.00    -0.000 C 
ATOM      9  C   UNL     1      33.872 -10.843 -24.132  0.00  0.00    +0.000 C 
ATOM     10  C   UNL     1      32.174 -10.285 -22.507  0.00  0.00    +0.000 C 
BRANCH   8  11
ATOM     11  C   UNL     1      33.122  -8.509 -23.925  0.00  0.00    -0.000 C 
ATOM     12  C   UNL     1      31.962  -7.736 -23.962  0.00  0.00    -0.006 C 
ATOM     13  C   UNL     1      32.027  -6.399 -24.356  0.00  0.00    -0.044 C 
ATOM     14  C   UNL     1      34.347  -7.946 -24.282  0.00  0.00    -0.000 C 
ATOM     15  C   UNL     1      33.252  -5.837 -24.714  0.00  0.00    -0.006 C 
ATOM     16  C   UNL     1      34.413  -6.610 -24.676  0.00  0.00    -0.000 C 
BRANCH  13  17
ATOM     17  C   UNL     1      30.787  -5.572 -24.394  0.00  0.00    -0.059 C 
BRANCH  17  18
ATOM     18  N   UNL     1      30.745  -4.579 -23.320  0.00  0.00    +0.383 N 
ATOM     19  H   UNL     1      30.584  -3.654 -23.718  0.00  0.00    -0.089 HD
ATOM     20  H   UNL     1      31.633  -4.582 -22.818  0.00  0.00    -0.089 HD
ATOM     21  H   UNL     1      29.989  -4.809 -22.674  0.00  0.00    -0.089 HD
ENDBRANCH  17  18
ENDBRANCH  13  17
ENDBRANCH   8  11
ENDBRANCH   3   5
BRANCH   2  22
ATOM     22  C   UNL     1      34.006 -16.193 -22.373  0.00  0.00    +0.083 C 
ATOM     23  C   UNL     1      34.552 -16.394 -20.960  0.00  0.00    +0.022 C 
BRANCH  22  24
ATOM     24  C   UNL     1      34.800 -16.995 -23.428  0.00  0.00    +0.121 C 
BRANCH  24  26
ATOM     25  O   UNL     1      35.223 -16.715 -25.812  0.00  0.00    -0.250 OA
ATOM     26  C   UNL     1      34.516 -16.489 -24.839  0.00  0.00    +0.319 C 
BRANCH  26  27
ATOM     27  O   UNL     1      33.366 -15.754 -24.840  0.00  0.00    -0.444 OA
ATOM     28  C   UNL     1      33.032 -15.135 -26.087  0.00  0.00    +0.256 C 
ENDBRANCH  26  27
ENDBRANCH  24  26
BRANCH  24  29
ATOM     29  C   UNL     1      34.509 -18.508 -23.345  0.00  0.00    +0.039 C 
BRANCH  29  30
ATOM     30  C   UNL     1      35.161 -19.165 -22.150  0.00  0.00    -0.021 C 
ATOM     31  C   UNL     1      34.431 -20.049 -21.357  0.00  0.00    -0.002 C 
ATOM     32  C   UNL     1      36.491 -18.884 -21.839  0.00  0.00    -0.004 C 
ATOM     33  C   UNL     1      35.032 -20.655 -20.253  0.00  0.00    +0.030 C 
ATOM     34  C   UNL     1      37.092 -19.489 -20.735  0.00  0.00    -0.000 C 
ATOM     35  C   UNL     1      36.364 -20.374 -19.942  0.00  0.00    +0.003 C 
BRANCH  33  38
ATOM     36  N   UNL     1      32.883 -21.658 -19.516  0.00  0.00    -0.343 N 
ATOM     37  N   UNL     1      34.898 -22.356 -18.561  0.00  0.00    -0.285 NA
ATOM     38  C   UNL     1      34.272 -21.577 -19.424  0.00  0.00    +0.117 C 
ATOM     39  H   UNL     1      32.388 -22.288 -18.945  0.00  0.00    +0.144 HD
ATOM     40  H   UNL     1      32.397 -21.082 -20.151  0.00  0.00    +0.144 HD
ATOM     41  H   UNL     1      34.385 -22.980 -17.999  0.00  0.00    +0.188 HD
ENDBRANCH  33  38
ENDBRANCH  29  30
ENDBRANCH  24  29
ENDBRANCH  22  24
ENDBRANCH   2  22
TORSDOF 11
ENDMDL
MODEL 8
REMARK VINA RESULT:     -10.8      6.909     15.173
REMARK  Name = 5497056
REMARK  11 active torsions:
REMARK  status: ('A' for Active; 'I' for Inactive)
REMARK    1  A    between atoms: N_2  and  C_22
REMARK    2  A    between atoms: C_3  and  C_5
REMARK    3  A    between atoms: C_8  and  C_11
REMARK    4  A    between atoms: C_13  and  C_17
REMARK    5  A    between atoms: C_17  and  N_18
REMARK    6  A    between atoms: C_22  and  C_24
REMARK    7  A    between atoms: C_24  and  C_26
REMARK    8  A    between atoms: C_24  and  C_29
REMARK    9  A    between atoms: C_26  and  O_27
REMARK   10  A    between atoms: C_29  and  C_30
REMARK   11  A    between atoms: C_33  and  C_38
REMARK                            x       y       z     vdW  Elec       q    Type
REMARK                         _______ _______ _______ _____ _____    ______ ____
ROOT
ATOM      1  O   UNL     1      33.493 -13.008 -25.250  0.00  0.00    -0.270 OA
ATOM      2  N   UNL     1      33.339 -11.953 -23.191  0.00  0.00    -0.302 N 
ATOM      3  C   UNL     1      33.487 -13.052 -24.023  0.00  0.00    +0.246 C 
ATOM      4  H   UNL     1      33.347 -12.092 -22.216  0.00  0.00    +0.150 HD
ENDROOT
BRANCH   3   5
ATOM      5  C   UNL     1      33.621 -14.366 -23.344  0.00  0.00    +0.053 C 
ATOM      6  C   UNL     1      33.030 -14.569 -22.096  0.00  0.00    +0.005 C 
ATOM      7  C   UNL     1      34.336 -15.397 -23.952  0.00  0.00    +0.005 C 
ATOM      8  C   UNL     1      33.871 -16.834 -22.067  0.00  0.00    -0.000 C 
ATOM      9  C   UNL     1      33.156 -15.803 -21.458  0.00  0.00    +0.000 C 
ATOM     10  C   UNL     1      34.461 -16.631 -23.314  0.00  0.00    +0.000 C 
BRANCH   8  11
ATOM     11  C   UNL     1      33.999 -18.114 -21.404  0.00  0.00    -0.000 C 
ATOM     12  C   UNL     1      35.263 -18.616 -21.093  0.00  0.00    -0.006 C 
ATOM     13  C   UNL     1      35.385 -19.849 -20.454  0.00  0.00    -0.044 C 
ATOM     14  C   UNL     1      32.857 -18.845 -21.075  0.00  0.00    -0.000 C 
ATOM     15  C   UNL     1      34.244 -20.581 -20.126  0.00  0.00    -0.006 C 
ATOM     16  C   UNL     1      32.980 -20.079 -20.436  0.00  0.00    -0.000 C 
BRANCH  13  17
ATOM     17  C   UNL     1      36.736 -20.386 -20.121  0.00  0.00    -0.059 C 
BRANCH  17  18
ATOM     18  N   UNL     1      36.783 -20.993 -18.790  0.00  0.00    +0.383 N 
ATOM     19  H   UNL     1      36.837 -22.007 -18.881  0.00  0.00    -0.089 HD
ATOM     20  H   UNL     1      35.941 -20.743 -18.272  0.00  0.00    -0.089 HD
ATOM     21  H   UNL     1      37.604 -20.651 -18.290  0.00  0.00    -0.089 HD
ENDBRANCH  17  18
ENDBRANCH  13  17
ENDBRANCH   8  11
ENDBRANCH   3   5
BRANCH   2  22
ATOM     22  C   UNL     1      33.173 -10.612 -23.701  0.00  0.00    +0.083 C 
ATOM     23  C   UNL     1      34.535  -9.996 -24.014  0.00  0.00    +0.022 C 
BRANCH  22  24
ATOM     24  C   UNL     1      32.327  -9.721 -22.763  0.00  0.00    +0.121 C 
BRANCH  24  26
ATOM     25  O   UNL     1      30.870 -11.488 -21.930  0.00  0.00    -0.250 OA
ATOM     26  C   UNL     1      31.623 -10.551 -21.696  0.00  0.00    +0.319 C 
BRANCH  26  27
ATOM     27  O   UNL     1      31.959 -10.087 -20.457  0.00  0.00    -0.444 OA
ATOM     28  C   UNL     1      31.420 -10.826 -19.356  0.00  0.00    +0.256 C 
ENDBRANCH  26  27
ENDBRANCH  24  26
BRANCH  24  29
ATOM     29  C   UNL     1      31.295  -8.880 -23.541  0.00  0.00    +0.039 C 
BRANCH  29  30
ATOM     30  C   UNL     1      31.386  -7.404 -23.228  0.00  0.00    -0.021 C 
ATOM     31  C   UNL     1      31.259  -6.465 -24.251  0.00  0.00    -0.002 C 
ATOM     32  C   UNL     1      31.599  -6.981 -21.916  0.00  0.00    -0.004 C 
ATOM     33  C   UNL     1      31.345  -5.102 -23.962  0.00  0.00    +0.030 C 
ATOM     34  C   UNL     1      31.685  -5.619 -21.627  0.00  0.00    -0.000 C 
ATOM     35  C   UNL     1      31.558  -4.679 -22.649  0.00  0.00    +0.003 C 
BRANCH  33  38
ATOM     36  N   UNL     1      32.031  -4.167 -26.158  0.00  0.00    -0.343 N 
ATOM     37  N   UNL     1      30.309  -3.165 -24.936  0.00  0.00    -0.285 NA
ATOM     38  C   UNL     1      31.214  -4.123 -25.029  0.00  0.00    +0.117 C 
ATOM     39  H   UNL     1      31.926  -3.493 -26.868  0.00  0.00    +0.144 HD
ATOM     40  H   UNL     1      32.714  -4.871 -26.245  0.00  0.00    +0.144 HD
ATOM     41  H   UNL     1      30.219  -2.501 -25.656  0.00  0.00    +0.188 HD
ENDBRANCH  33  38
ENDBRANCH  29  30
ENDBRANCH  24  29
ENDBRANCH  22  24
ENDBRANCH   2  22
TORSDOF 11
ENDMDL
MODEL 9
REMARK VINA RESULT:     -10.7      7.156     15.384
REMARK  Name = 5497056
REMARK  11 active torsions:
REMARK  status: ('A' for Active; 'I' for Inactive)
REMARK    1  A    between atoms: N_2  and  C_22
REMARK    2  A    between atoms: C_3  and  C_5
REMARK    3  A    between atoms: C_8  and  C_11
REMARK    4  A    between atoms: C_13  and  C_17
REMARK    5  A    between atoms: C_17  and  N_18
REMARK    6  A    between atoms: C_22  and  C_24
REMARK    7  A    between atoms: C_24  and  C_26
REMARK    8  A    between atoms: C_24  and  C_29
REMARK    9  A    between atoms: C_26  and  O_27
REMARK   10  A    between atoms: C_29  and  C_30
REMARK   11  A    between atoms: C_33  and  C_38
REMARK                            x       y       z     vdW  Elec       q    Type
REMARK                         _______ _______ _______ _____ _____    ______ ____
ROOT
ATOM      1  O   UNL     1      33.262 -12.837 -25.467  0.00  0.00    -0.270 OA
ATOM      2  N   UNL     1      34.199 -11.701 -23.676  0.00  0.00    -0.302 N 
ATOM      3  C   UNL     1      33.810 -12.837 -24.369  0.00  0.00    +0.246 C 
ATOM      4  H   UNL     1      34.632 -11.806 -22.798  0.00  0.00    +0.150 HD
ENDROOT
BRANCH   3   5
ATOM      5  C   UNL     1      34.069 -14.131 -23.687  0.00  0.00    +0.053 C 
ATOM      6  C   UNL     1      34.205 -14.174 -22.300  0.00  0.00    +0.005 C 
ATOM      7  C   UNL     1      34.175 -15.305 -24.434  0.00  0.00    +0.005 C 
ATOM      8  C   UNL     1      34.554 -16.563 -22.407  0.00  0.00    -0.000 C 
ATOM      9  C   UNL     1      34.448 -15.389 -21.660  0.00  0.00    +0.000 C 
ATOM     10  C   UNL     1      34.418 -16.520 -23.794  0.00  0.00    +0.000 C 
BRANCH   8  11
ATOM     11  C   UNL     1      34.805 -17.823 -21.741  0.00  0.00    -0.000 C 
ATOM     12  C   UNL     1      33.741 -18.566 -21.231  0.00  0.00    -0.006 C 
ATOM     13  C   UNL     1      33.984 -19.781 -20.590  0.00  0.00    -0.044 C 
ATOM     14  C   UNL     1      36.111 -18.293 -21.611  0.00  0.00    -0.000 C 
ATOM     15  C   UNL     1      35.290 -20.251 -20.458  0.00  0.00    -0.006 C 
ATOM     16  C   UNL     1      36.354 -19.508 -20.969  0.00  0.00    -0.000 C 
BRANCH  13  17
ATOM     17  C   UNL     1      32.846 -20.577 -20.045  0.00  0.00    -0.059 C 
BRANCH  17  18
ATOM     18  N   UNL     1      33.219 -21.965 -19.767  0.00  0.00    +0.383 N 
ATOM     19  H   UNL     1      34.224 -22.080 -19.899  0.00  0.00    -0.089 HD
ATOM     20  H   UNL     1      32.719 -22.586 -20.403  0.00  0.00    -0.089 HD
ATOM     21  H   UNL     1      32.974 -22.195 -18.804  0.00  0.00    -0.089 HD
ENDBRANCH  17  18
ENDBRANCH  13  17
ENDBRANCH   8  11
ENDBRANCH   3   5
BRANCH   2  22
ATOM     22  C   UNL     1      33.992 -10.368 -24.195  0.00  0.00    +0.083 C 
ATOM     23  C   UNL     1      35.196  -9.938 -25.032  0.00  0.00    +0.022 C 
BRANCH  22  24
ATOM     24  C   UNL     1      33.652  -9.346 -23.087  0.00  0.00    +0.121 C 
BRANCH  24  26
ATOM     25  O   UNL     1      31.445  -8.909 -24.025  0.00  0.00    -0.250 OA
ATOM     26  C   UNL     1      32.155  -9.060 -23.038  0.00  0.00    +0.319 C 
BRANCH  26  27
ATOM     27  O   UNL     1      31.741  -8.998 -21.739  0.00  0.00    -0.444 OA
ATOM     28  C   UNL     1      31.554 -10.261 -21.092  0.00  0.00    +0.256 C 
ENDBRANCH  26  27
ENDBRANCH  24  26
BRANCH  24  29
ATOM     29  C   UNL     1      34.434  -8.028 -23.257  0.00  0.00    +0.039 C 
BRANCH  29  30
ATOM     30  C   UNL     1      33.569  -6.894 -23.758  0.00  0.00    -0.021 C 
ATOM     31  C   UNL     1      32.695  -6.246 -22.887  0.00  0.00    -0.002 C 
ATOM     32  C   UNL     1      33.644  -6.498 -25.093  0.00  0.00    -0.004 C 
ATOM     33  C   UNL     1      31.896  -5.200 -23.349  0.00  0.00    +0.030 C 
ATOM     34  C   UNL     1      32.844  -5.453 -25.557  0.00  0.00    -0.000 C 
ATOM     35  C   UNL     1      31.971  -4.804 -24.686  0.00  0.00    +0.003 C 
BRANCH  33  38
ATOM     36  N   UNL     1      30.461  -5.172 -21.323  0.00  0.00    -0.343 N 
ATOM     37  N   UNL     1      30.632  -3.272 -22.673  0.00  0.00    -0.285 NA
ATOM     38  C   UNL     1      30.983  -4.524 -22.442  0.00  0.00    +0.117 C 
ATOM     39  H   UNL     1      29.844  -4.695 -20.722  0.00  0.00    +0.144 HD
ATOM     40  H   UNL     1      30.708  -6.106 -21.135  0.00  0.00    +0.144 HD
ATOM     41  H   UNL     1      30.014  -2.813 -22.060  0.00  0.00    +0.188 HD
ENDBRANCH  33  38
ENDBRANCH  29  30
ENDBRANCH  24  29
ENDBRANCH  22  24
ENDBRANCH   2  22
TORSDOF 11
ENDMDL
