MODEL 1
REMARK VINA RESULT:     -10.0      0.000      0.000
REMARK  Name = 1507
REMARK  3 active torsions:
REMARK  status: ('A' for Active; 'I' for Inactive)
REMARK    1  A    between atoms: C_4  and  C_18
REMARK    2  A    between atoms: C_8  and  C_13
REMARK    3  A    between atoms: C_19  and  O_24
REMARK                            x       y       z     vdW  Elec       q    Type
REMARK                         _______ _______ _______ _____ _____    ______ ____
ROOT
ATOM      1  N   UNL     1      35.777 -19.795 -21.045  0.00  0.00    -0.312 N 
ATOM      2  C   UNL     1      34.061 -20.792 -20.026  0.00  0.00    +0.015 C 
ATOM      3  C   UNL     1      35.452 -20.665 -20.028  0.00  0.00    +0.048 C 
ATOM      4  C   UNL     1      34.643 -19.371 -21.684  0.00  0.00    +0.051 C 
ATOM      5  C   UNL     1      33.564 -19.971 -21.076  0.00  0.00    +0.016 C 
ATOM      6  C   UNL     1      33.459 -21.635 -19.070  0.00  0.00    +0.004 C 
ATOM      7  C   UNL     1      36.274 -21.340 -19.120  0.00  0.00    +0.015 C 
ATOM      8  C   UNL     1      34.270 -22.317 -18.155  0.00  0.00    +0.029 C 
ATOM      9  C   UNL     1      35.655 -22.170 -18.181  0.00  0.00    +0.004 C 
ATOM     10  H   UNL     1      36.693 -19.519 -21.280  0.00  0.00    +0.152 HD
ENDROOT
BRANCH   8  13
ATOM     11  N   UNL     1      32.325 -23.332 -17.129  0.00  0.00    -0.345 N 
ATOM     12  N   UNL     1      34.419 -23.849 -16.285  0.00  0.00    -0.387 N 
ATOM     13  C   UNL     1      33.658 -23.184 -17.171  0.00  0.00    +0.095 C 
ATOM     14  H   UNL     1      31.916 -23.924 -16.457  0.00  0.00    +0.144 HD
ATOM     15  H   UNL     1      31.755 -22.849 -17.771  0.00  0.00    +0.144 HD
ATOM     16  H   UNL     1      33.996 -24.438 -15.619  0.00  0.00    +0.157 HD
ATOM     17  H   UNL     1      35.398 -23.750 -16.303  0.00  0.00    +0.157 HD
ENDBRANCH   8  13
BRANCH   4  18
ATOM     18  C   UNL     1      34.690 -18.450 -22.794  0.00  0.00    +0.047 C 
ATOM     19  C   UNL     1      34.902 -17.086 -22.586  0.00  0.00    +0.135 C 
ATOM     20  C   UNL     1      34.519 -18.937 -24.091  0.00  0.00    +0.004 C 
ATOM     21  C   UNL     1      34.944 -16.211 -23.672  0.00  0.00    +0.037 C 
ATOM     22  C   UNL     1      34.560 -18.062 -25.177  0.00  0.00    +0.000 C 
ATOM     23  C   UNL     1      34.773 -16.700 -24.967  0.00  0.00    +0.003 C 
BRANCH  19  24
ATOM     24  O   UNL     1      35.073 -16.581 -21.330  0.00  0.00    -0.505 OA
ATOM     25  H   UNL     1      34.451 -15.975 -20.980  0.00  0.00    +0.292 HD
ENDBRANCH  19  24
ENDBRANCH   4  18
TORSDOF 3
ENDMDL
MODEL 2
REMARK VINA RESULT:      -9.9      3.024      7.466
REMARK  Name = 1507
REMARK  3 active torsions:
REMARK  status: ('A' for Active; 'I' for Inactive)
REMARK    1  A    between atoms: C_4  and  C_18
REMARK    2  A    between atoms: C_8  and  C_13
REMARK    3  A    between atoms: C_19  and  O_24
REMARK                            x       y       z     vdW  Elec       q    Type
REMARK                         _______ _______ _______ _____ _____    ______ ____
ROOT
ATOM      1  N   UNL     1      34.786 -19.053 -22.889  0.00  0.00    -0.312 N 
ATOM      2  C   UNL     1      34.285 -16.909 -22.526  0.00  0.00    +0.015 C 
ATOM      3  C   UNL     1      34.551 -17.853 -23.521  0.00  0.00    +0.048 C 
ATOM      4  C   UNL     1      34.680 -18.900 -21.532  0.00  0.00    +0.051 C 
ATOM      5  C   UNL     1      34.370 -17.584 -21.276  0.00  0.00    +0.016 C 
ATOM      6  C   UNL     1      34.007 -15.581 -22.907  0.00  0.00    +0.004 C 
ATOM      7  C   UNL     1      34.551 -17.534 -24.883  0.00  0.00    +0.015 C 
ATOM      8  C   UNL     1      34.005 -15.248 -24.267  0.00  0.00    +0.029 C 
ATOM      9  C   UNL     1      34.273 -16.211 -25.238  0.00  0.00    +0.004 C 
ATOM     10  H   UNL     1      35.000 -19.898 -23.346  0.00  0.00    +0.152 HD
ENDROOT
BRANCH   8  13
ATOM     11  N   UNL     1      33.141 -13.632 -25.850  0.00  0.00    -0.345 N 
ATOM     12  N   UNL     1      34.033 -12.861 -23.856  0.00  0.00    -0.387 N 
ATOM     13  C   UNL     1      33.720 -13.887 -24.666  0.00  0.00    +0.095 C 
ATOM     14  H   UNL     1      32.949 -12.703 -26.115  0.00  0.00    +0.144 HD
ATOM     15  H   UNL     1      32.907 -14.373 -26.454  0.00  0.00    +0.144 HD
ATOM     16  H   UNL     1      33.836 -11.938 -24.134  0.00  0.00    +0.157 HD
ATOM     17  H   UNL     1      34.459 -13.033 -22.985  0.00  0.00    +0.157 HD
ENDBRANCH   8  13
BRANCH   4  18
ATOM     18  C   UNL     1      34.877 -20.002 -20.621  0.00  0.00    +0.047 C 
ATOM     19  C   UNL     1      33.794 -20.746 -20.149  0.00  0.00    +0.135 C 
ATOM     20  C   UNL     1      36.173 -20.322 -20.211  0.00  0.00    +0.004 C 
ATOM     21  C   UNL     1      34.006 -21.807 -19.269  0.00  0.00    +0.037 C 
ATOM     22  C   UNL     1      36.384 -21.383 -19.331  0.00  0.00    +0.000 C 
ATOM     23  C   UNL     1      35.302 -22.126 -18.860  0.00  0.00    +0.003 C 
BRANCH  19  24
ATOM     24  O   UNL     1      32.518 -20.457 -20.533  0.00  0.00    -0.505 OA
ATOM     25  H   UNL     1      31.855 -20.314 -19.886  0.00  0.00    +0.292 HD
ENDBRANCH  19  24
ENDBRANCH   4  18
TORSDOF 3
ENDMDL
MODEL 3
REMARK VINA RESULT:      -9.8      2.984      7.453
REMARK  Name = 1507
REMARK  3 active torsions:
REMARK  status: ('A' for Active; 'I' for Inactive)
REMARK    1  A    between atoms: C_4  and  C_18
REMARK    2  A    between atoms: C_8  and  C_13
REMARK    3  A    between atoms: C_19  and  O_24
REMARK                            x       y       z     vdW  Elec       q    Type
REMARK                         _______ _______ _______ _____ _____    ______ ____
ROOT
ATOM      1  N   UNL     1      34.734 -18.978 -22.860  0.00  0.00    -0.312 N 
ATOM      2  C   UNL     1      34.214 -16.842 -22.476  0.00  0.00    +0.015 C 
ATOM      3  C   UNL     1      34.525 -17.765 -23.478  0.00  0.00    +0.048 C 
ATOM      4  C   UNL     1      34.566 -18.853 -21.506  0.00  0.00    +0.051 C 
ATOM      5  C   UNL     1      34.243 -17.543 -21.238  0.00  0.00    +0.016 C 
ATOM      6  C   UNL     1      33.950 -15.507 -22.842  0.00  0.00    +0.004 C 
ATOM      7  C   UNL     1      34.587 -17.418 -24.831  0.00  0.00    +0.015 C 
ATOM      8  C   UNL     1      34.009 -15.146 -24.193  0.00  0.00    +0.029 C 
ATOM      9  C   UNL     1      34.322 -16.088 -25.171  0.00  0.00    +0.004 C 
ATOM     10  H   UNL     1      34.970 -19.813 -23.324  0.00  0.00    +0.152 HD
ENDROOT
BRANCH   8  13
ATOM     11  N   UNL     1      34.048 -12.766 -23.750  0.00  0.00    -0.345 N 
ATOM     12  N   UNL     1      33.175 -13.502 -25.765  0.00  0.00    -0.387 N 
ATOM     13  C   UNL     1      33.740 -13.777 -24.577  0.00  0.00    +0.095 C 
ATOM     14  H   UNL     1      33.862 -11.836 -24.017  0.00  0.00    +0.144 HD
ATOM     15  H   UNL     1      34.460 -12.952 -22.875  0.00  0.00    +0.144 HD
ATOM     16  H   UNL     1      32.996 -12.568 -26.019  0.00  0.00    +0.157 HD
ATOM     17  H   UNL     1      32.943 -14.234 -26.382  0.00  0.00    +0.157 HD
ENDBRANCH   8  13
BRANCH   4  18
ATOM     18  C   UNL     1      34.725 -19.973 -20.610  0.00  0.00    +0.047 C 
ATOM     19  C   UNL     1      35.990 -20.373 -20.177  0.00  0.00    +0.135 C 
ATOM     20  C   UNL     1      33.591 -20.662 -20.175  0.00  0.00    +0.004 C 
ATOM     21  C   UNL     1      36.122 -21.458 -19.311  0.00  0.00    +0.037 C 
ATOM     22  C   UNL     1      33.723 -21.747 -19.309  0.00  0.00    +0.000 C 
ATOM     23  C   UNL     1      34.988 -22.146 -18.877  0.00  0.00    +0.003 C 
BRANCH  19  24
ATOM     24  O   UNL     1      37.115 -19.719 -20.585  0.00  0.00    -0.505 OA
ATOM     25  H   UNL     1      37.044 -18.922 -21.074  0.00  0.00    +0.292 HD
ENDBRANCH  19  24
ENDBRANCH   4  18
TORSDOF 3
ENDMDL
MODEL 4
REMARK VINA RESULT:      -9.6      1.143      1.579
REMARK  Name = 1507
REMARK  3 active torsions:
REMARK  status: ('A' for Active; 'I' for Inactive)
REMARK    1  A    between atoms: C_4  and  C_18
REMARK    2  A    between atoms: C_8  and  C_13
REMARK    3  A    between atoms: C_19  and  O_24
REMARK                            x       y       z     vdW  Elec       q    Type
REMARK                         _______ _______ _______ _____ _____    ______ ____
ROOT
ATOM      1  N   UNL     1      35.630 -19.554 -21.289  0.00  0.00    -0.312 N 
ATOM      2  C   UNL     1      33.893 -20.481 -20.239  0.00  0.00    +0.015 C 
ATOM      3  C   UNL     1      35.288 -20.466 -20.315  0.00  0.00    +0.048 C 
ATOM      4  C   UNL     1      34.503 -18.996 -21.830  0.00  0.00    +0.051 C 
ATOM      5  C   UNL     1      33.411 -19.548 -21.200  0.00  0.00    +0.016 C 
ATOM      6  C   UNL     1      33.274 -21.339 -19.308  0.00  0.00    +0.004 C 
ATOM      7  C   UNL     1      36.097 -21.268 -19.505  0.00  0.00    +0.015 C 
ATOM      8  C   UNL     1      34.072 -22.148 -18.491  0.00  0.00    +0.029 C 
ATOM      9  C   UNL     1      35.461 -22.112 -18.589  0.00  0.00    +0.004 C 
ATOM     10  H   UNL     1      36.552 -19.337 -21.559  0.00  0.00    +0.152 HD
ENDROOT
BRANCH   8  13
ATOM     11  N   UNL     1      32.116 -23.228 -17.558  0.00  0.00    -0.345 N 
ATOM     12  N   UNL     1      34.182 -23.664 -16.606  0.00  0.00    -0.387 N 
ATOM     13  C   UNL     1      33.443 -23.032 -17.533  0.00  0.00    +0.095 C 
ATOM     14  H   UNL     1      31.695 -23.831 -16.903  0.00  0.00    +0.144 HD
ATOM     15  H   UNL     1      31.562 -22.770 -18.230  0.00  0.00    +0.144 HD
ATOM     16  H   UNL     1      33.747 -24.264 -15.957  0.00  0.00    +0.157 HD
ATOM     17  H   UNL     1      35.156 -23.530 -16.575  0.00  0.00    +0.157 HD
ENDBRANCH   8  13
BRANCH   4  18
ATOM     18  C   UNL     1      34.568 -18.003 -22.876  0.00  0.00    +0.047 C 
ATOM     19  C   UNL     1      34.708 -18.378 -24.213  0.00  0.00    +0.135 C 
ATOM     20  C   UNL     1      34.489 -16.651 -22.537  0.00  0.00    +0.004 C 
ATOM     21  C   UNL     1      34.769 -17.403 -25.209  0.00  0.00    +0.037 C 
ATOM     22  C   UNL     1      34.550 -15.677 -23.533  0.00  0.00    +0.000 C 
ATOM     23  C   UNL     1      34.690 -16.052 -24.869  0.00  0.00    +0.003 C 
BRANCH  19  24
ATOM     24  O   UNL     1      34.788 -19.691 -24.574  0.00  0.00    -0.505 OA
ATOM     25  H   UNL     1      34.211 -20.033 -25.228  0.00  0.00    +0.292 HD
ENDBRANCH  19  24
ENDBRANCH   4  18
TORSDOF 3
ENDMDL
MODEL 5
REMARK VINA RESULT:      -9.6      3.544      7.757
REMARK  Name = 1507
REMARK  3 active torsions:
REMARK  status: ('A' for Active; 'I' for Inactive)
REMARK    1  A    between atoms: C_4  and  C_18
REMARK    2  A    between atoms: C_8  and  C_13
REMARK    3  A    between atoms: C_19  and  O_24
REMARK                            x       y       z     vdW  Elec       q    Type
REMARK                         _______ _______ _______ _____ _____    ______ ____
ROOT
ATOM      1  N   UNL     1      33.607 -17.125 -20.888  0.00  0.00    -0.312 N 
ATOM      2  C   UNL     1      34.402 -16.103 -22.705  0.00  0.00    +0.015 C 
ATOM      3  C   UNL     1      33.496 -15.982 -21.649  0.00  0.00    +0.048 C 
ATOM      4  C   UNL     1      34.549 -17.960 -21.426  0.00  0.00    +0.051 C 
ATOM      5  C   UNL     1      35.060 -17.355 -22.552  0.00  0.00    +0.016 C 
ATOM      6  C   UNL     1      34.492 -15.056 -23.644  0.00  0.00    +0.004 C 
ATOM      7  C   UNL     1      32.672 -14.864 -21.484  0.00  0.00    +0.015 C 
ATOM      8  C   UNL     1      33.673 -13.930 -23.492  0.00  0.00    +0.029 C 
ATOM      9  C   UNL     1      32.778 -13.838 -22.428  0.00  0.00    +0.004 C 
ATOM     10  H   UNL     1      33.084 -17.314 -20.076  0.00  0.00    +0.152 HD
ENDROOT
BRANCH   8  13
ATOM     11  N   UNL     1      34.221 -11.646 -24.081  0.00  0.00    -0.345 N 
ATOM     12  N   UNL     1      33.378 -13.043 -25.725  0.00  0.00    -0.387 N 
ATOM     13  C   UNL     1      33.760 -12.851 -24.452  0.00  0.00    +0.095 C 
ATOM     14  H   UNL     1      34.278 -10.917 -24.740  0.00  0.00    +0.144 HD
ATOM     15  H   UNL     1      34.503 -11.491 -23.150  0.00  0.00    +0.144 HD
ATOM     16  H   UNL     1      33.440 -12.304 -26.374  0.00  0.00    +0.157 HD
ATOM     17  H   UNL     1      33.037 -13.921 -26.012  0.00  0.00    +0.157 HD
ENDBRANCH   8  13
BRANCH   4  18
ATOM     18  C   UNL     1      34.871 -19.234 -20.829  0.00  0.00    +0.047 C 
ATOM     19  C   UNL     1      33.865 -20.121 -20.442  0.00  0.00    +0.135 C 
ATOM     20  C   UNL     1      36.211 -19.577 -20.639  0.00  0.00    +0.004 C 
ATOM     21  C   UNL     1      34.197 -21.347 -19.866  0.00  0.00    +0.037 C 
ATOM     22  C   UNL     1      36.543 -20.803 -20.064  0.00  0.00    +0.000 C 
ATOM     23  C   UNL     1      35.537 -21.688 -19.677  0.00  0.00    +0.003 C 
BRANCH  19  24
ATOM     24  O   UNL     1      32.548 -19.813 -20.615  0.00  0.00    -0.505 OA
ATOM     25  H   UNL     1      32.001 -20.368 -21.136  0.00  0.00    +0.292 HD
ENDBRANCH  19  24
ENDBRANCH   4  18
TORSDOF 3
ENDMDL
MODEL 6
REMARK VINA RESULT:      -9.4      7.841      9.455
REMARK  Name = 1507
REMARK  3 active torsions:
REMARK  status: ('A' for Active; 'I' for Inactive)
REMARK    1  A    between atoms: C_4  and  C_18
REMARK    2  A    between atoms: C_8  and  C_13
REMARK    3  A    between atoms: C_19  and  O_24
REMARK                            x       y       z     vdW  Elec       q    Type
REMARK                         _______ _______ _______ _____ _____    ______ ____
ROOT
ATOM      1  N   UNL     1      32.965 -25.035 -13.871  0.00  0.00    -0.312 N 
ATOM      2  C   UNL     1      31.935 -23.568 -15.199  0.00  0.00    +0.015 C 
ATOM      3  C   UNL     1      31.731 -24.660 -14.353  0.00  0.00    +0.048 C 
ATOM      4  C   UNL     1      33.939 -24.220 -14.383  0.00  0.00    +0.051 C 
ATOM      5  C   UNL     1      33.333 -23.301 -15.208  0.00  0.00    +0.016 C 
ATOM      6  C   UNL     1      30.820 -22.982 -15.832  0.00  0.00    +0.004 C 
ATOM      7  C   UNL     1      30.463 -25.198 -14.107  0.00  0.00    +0.015 C 
ATOM      8  C   UNL     1      29.546 -23.510 -15.595  0.00  0.00    +0.029 C 
ATOM      9  C   UNL     1      29.372 -24.601 -14.745  0.00  0.00    +0.004 C 
ATOM     10  H   UNL     1      33.124 -25.782 -13.250  0.00  0.00    +0.152 HD
ENDROOT
BRANCH   8  13
ATOM     11  N   UNL     1      27.480 -22.249 -15.519  0.00  0.00    -0.345 N 
ATOM     12  N   UNL     1      28.232 -23.020 -17.570  0.00  0.00    -0.387 N 
ATOM     13  C   UNL     1      28.396 -22.914 -16.240  0.00  0.00    +0.095 C 
ATOM     14  H   UNL     1      26.700 -21.845 -15.965  0.00  0.00    +0.144 HD
ATOM     15  H   UNL     1      27.586 -22.164 -14.544  0.00  0.00    +0.144 HD
ATOM     16  H   UNL     1      27.448 -22.611 -18.002  0.00  0.00    +0.157 HD
ATOM     17  H   UNL     1      28.896 -23.505 -18.111  0.00  0.00    +0.157 HD
ENDBRANCH   8  13
BRANCH   4  18
ATOM     18  C   UNL     1      35.332 -24.387 -14.044  0.00  0.00    +0.047 C 
ATOM     19  C   UNL     1      35.719 -24.722 -12.745  0.00  0.00    +0.135 C 
ATOM     20  C   UNL     1      36.300 -24.210 -15.034  0.00  0.00    +0.004 C 
ATOM     21  C   UNL     1      37.070 -24.878 -12.437  0.00  0.00    +0.037 C 
ATOM     22  C   UNL     1      37.651 -24.367 -14.725  0.00  0.00    +0.000 C 
ATOM     23  C   UNL     1      38.036 -24.701 -13.428  0.00  0.00    +0.003 C 
BRANCH  19  24
ATOM     24  O   UNL     1      34.795 -24.901 -11.757  0.00  0.00    -0.505 OA
ATOM     25  H   UNL     1      34.774 -25.705 -11.276  0.00  0.00    +0.292 HD
ENDBRANCH  19  24
ENDBRANCH   4  18
TORSDOF 3
ENDMDL
MODEL 7
REMARK VINA RESULT:      -9.1      5.699      9.414
REMARK  Name = 1507
REMARK  3 active torsions:
REMARK  status: ('A' for Active; 'I' for Inactive)
REMARK    1  A    between atoms: C_4  and  C_18
REMARK    2  A    between atoms: C_8  and  C_13
REMARK    3  A    between atoms: C_19  and  O_24
REMARK                            x       y       z     vdW  Elec       q    Type
REMARK                         _______ _______ _______ _____ _____    ______ ____
ROOT
ATOM      1  N   UNL     1      34.307 -13.735 -24.390  0.00  0.00    -0.312 N 
ATOM      2  C   UNL     1      32.898 -12.731 -22.981  0.00  0.00    +0.015 C 
ATOM      3  C   UNL     1      33.782 -12.511 -24.040  0.00  0.00    +0.048 C 
ATOM      4  C   UNL     1      33.788 -14.717 -23.589  0.00  0.00    +0.051 C 
ATOM      5  C   UNL     1      32.912 -14.127 -22.708  0.00  0.00    +0.016 C 
ATOM      6  C   UNL     1      32.216 -11.629 -22.427  0.00  0.00    +0.004 C 
ATOM      7  C   UNL     1      34.018 -11.241 -24.575  0.00  0.00    +0.015 C 
ATOM      8  C   UNL     1      32.443 -10.352 -22.952  0.00  0.00    +0.029 C 
ATOM      9  C   UNL     1      33.330 -10.163 -24.010  0.00  0.00    +0.004 C 
ATOM     10  H   UNL     1      34.962 -13.882 -25.110  0.00  0.00    +0.152 HD
ENDROOT
BRANCH   8  13
ATOM     11  N   UNL     1      31.774  -8.989 -21.066  0.00  0.00    -0.345 N 
ATOM     12  N   UNL     1      31.061  -8.377 -23.183  0.00  0.00    -0.387 N 
ATOM     13  C   UNL     1      31.746  -9.216 -22.389  0.00  0.00    +0.095 C 
ATOM     14  H   UNL     1      31.297  -8.213 -20.690  0.00  0.00    +0.144 HD
ATOM     15  H   UNL     1      32.270  -9.596 -20.471  0.00  0.00    +0.144 HD
ATOM     16  H   UNL     1      30.589  -7.606 -22.793  0.00  0.00    +0.157 HD
ATOM     17  H   UNL     1      31.031  -8.531 -24.155  0.00  0.00    +0.157 HD
ENDBRANCH   8  13
BRANCH   4  18
ATOM     18  C   UNL     1      34.165 -16.103 -23.737  0.00  0.00    +0.047 C 
ATOM     19  C   UNL     1      34.184 -16.711 -24.993  0.00  0.00    +0.135 C 
ATOM     20  C   UNL     1      34.515 -16.838 -22.603  0.00  0.00    +0.004 C 
ATOM     21  C   UNL     1      34.551 -18.052 -25.115  0.00  0.00    +0.037 C 
ATOM     22  C   UNL     1      34.883 -18.177 -22.725  0.00  0.00    +0.000 C 
ATOM     23  C   UNL     1      34.901 -18.785 -23.980  0.00  0.00    +0.003 C 
BRANCH  19  24
ATOM     24  O   UNL     1      33.847 -16.019 -26.119  0.00  0.00    -0.505 OA
ATOM     25  H   UNL     1      33.939 -16.419 -26.961  0.00  0.00    +0.292 HD
ENDBRANCH  19  24
ENDBRANCH   4  18
TORSDOF 3
ENDMDL
MODEL 8
REMARK VINA RESULT:      -9.1      1.532      1.923
REMARK  Name = 1507
REMARK  3 active torsions:
REMARK  status: ('A' for Active; 'I' for Inactive)
REMARK    1  A    between atoms: C_4  and  C_18
REMARK    2  A    between atoms: C_8  and  C_13
REMARK    3  A    between atoms: C_19  and  O_24
REMARK                            x       y       z     vdW  Elec       q    Type
REMARK                         _______ _______ _______ _____ _____    ______ ____
ROOT
ATOM      1  N   UNL     1      35.672 -18.377 -21.248  0.00  0.00    -0.312 N 
ATOM      2  C   UNL     1      34.102 -19.813 -20.576  0.00  0.00    +0.015 C 
ATOM      3  C   UNL     1      35.479 -19.584 -20.615  0.00  0.00    +0.048 C 
ATOM      4  C   UNL     1      34.467 -17.837 -21.610  0.00  0.00    +0.051 C 
ATOM      5  C   UNL     1      33.476 -18.702 -21.208  0.00  0.00    +0.016 C 
ATOM      6  C   UNL     1      33.627 -20.995 -19.973  0.00  0.00    +0.004 C 
ATOM      7  C   UNL     1      36.409 -20.481 -20.078  0.00  0.00    +0.015 C 
ATOM      8  C   UNL     1      34.546 -21.902 -19.433  0.00  0.00    +0.029 C 
ATOM      9  C   UNL     1      35.915 -21.647 -19.485  0.00  0.00    +0.004 C 
ATOM     10  H   UNL     1      36.549 -17.962 -21.416  0.00  0.00    +0.152 HD
ENDROOT
BRANCH   8  13
ATOM     11  N   UNL     1      33.883 -24.228 -19.543  0.00  0.00    -0.345 N 
ATOM     12  N   UNL     1      33.796 -23.147 -17.496  0.00  0.00    -0.387 N 
ATOM     13  C   UNL     1      34.066 -23.117 -18.812  0.00  0.00    +0.095 C 
ATOM     14  H   UNL     1      33.557 -25.052 -19.113  0.00  0.00    +0.144 HD
ATOM     15  H   UNL     1      34.076 -24.221 -20.508  0.00  0.00    +0.144 HD
ATOM     16  H   UNL     1      33.470 -23.978 -17.080  0.00  0.00    +0.157 HD
ATOM     17  H   UNL     1      33.924 -22.340 -16.947  0.00  0.00    +0.157 HD
ENDBRANCH   8  13
BRANCH   4  18
ATOM     18  C   UNL     1      34.372 -16.569 -22.293  0.00  0.00    +0.047 C 
ATOM     19  C   UNL     1      34.519 -15.367 -21.597  0.00  0.00    +0.135 C 
ATOM     20  C   UNL     1      34.129 -16.551 -23.667  0.00  0.00    +0.004 C 
ATOM     21  C   UNL     1      34.423 -14.151 -22.275  0.00  0.00    +0.037 C 
ATOM     22  C   UNL     1      34.034 -15.336 -24.344  0.00  0.00    +0.000 C 
ATOM     23  C   UNL     1      34.181 -14.136 -23.649  0.00  0.00    +0.003 C 
BRANCH  19  24
ATOM     24  O   UNL     1      34.757 -15.352 -20.254  0.00  0.00    -0.505 OA
ATOM     25  H   UNL     1      34.409 -14.663 -19.724  0.00  0.00    +0.292 HD
ENDBRANCH  19  24
ENDBRANCH   4  18
TORSDOF 3
ENDMDL
MODEL 9
REMARK VINA RESULT:      -9.1      5.891      9.492
REMARK  Name = 1507
REMARK  3 active torsions:
REMARK  status: ('A' for Active; 'I' for Inactive)
REMARK    1  A    between atoms: C_4  and  C_18
REMARK    2  A    between atoms: C_8  and  C_13
REMARK    3  A    between atoms: C_19  and  O_24
REMARK                            x       y       z     vdW  Elec       q    Type
REMARK                         _______ _______ _______ _____ _____    ______ ____
ROOT
ATOM      1  N   UNL     1      32.711 -14.119 -22.217  0.00  0.00    -0.312 N 
ATOM      2  C   UNL     1      33.025 -12.142 -23.202  0.00  0.00    +0.015 C 
ATOM      3  C   UNL     1      32.348 -12.792 -22.167  0.00  0.00    +0.048 C 
ATOM      4  C   UNL     1      33.589 -14.330 -23.246  0.00  0.00    +0.051 C 
ATOM      5  C   UNL     1      33.804 -13.125 -23.874  0.00  0.00    +0.016 C 
ATOM      6  C   UNL     1      32.829 -10.757 -23.375  0.00  0.00    +0.004 C 
ATOM      7  C   UNL     1      31.484 -12.124 -21.294  0.00  0.00    +0.015 C 
ATOM      8  C   UNL     1      31.966 -10.076 -22.509  0.00  0.00    +0.029 C 
ATOM      9  C   UNL     1      31.305 -10.751 -21.485  0.00  0.00    +0.004 C 
ATOM     10  H   UNL     1      32.385 -14.816 -21.603  0.00  0.00    +0.152 HD
ENDROOT
BRANCH   8  13
ATOM     11  N   UNL     1      31.478  -8.149 -23.892  0.00  0.00    -0.345 N 
ATOM     12  N   UNL     1      31.855  -7.822 -21.630  0.00  0.00    -0.387 N 
ATOM     13  C   UNL     1      31.761  -8.654 -22.681  0.00  0.00    +0.095 C 
ATOM     14  H   UNL     1      31.339  -7.181 -24.002  0.00  0.00    +0.144 HD
ATOM     15  H   UNL     1      31.408  -8.747 -24.672  0.00  0.00    +0.144 HD
ATOM     16  H   UNL     1      31.713  -6.856 -21.754  0.00  0.00    +0.157 HD
ATOM     17  H   UNL     1      32.063  -8.178 -20.736  0.00  0.00    +0.157 HD
ENDBRANCH   8  13
BRANCH   4  18
ATOM     18  C   UNL     1      34.136 -15.635 -23.529  0.00  0.00    +0.047 C 
ATOM     19  C   UNL     1      34.747 -16.391 -22.527  0.00  0.00    +0.135 C 
ATOM     20  C   UNL     1      34.047 -16.143 -24.827  0.00  0.00    +0.004 C 
ATOM     21  C   UNL     1      35.269 -17.650 -22.822  0.00  0.00    +0.037 C 
ATOM     22  C   UNL     1      34.569 -17.403 -25.120  0.00  0.00    +0.000 C 
ATOM     23  C   UNL     1      35.180 -18.156 -24.119  0.00  0.00    +0.003 C 
BRANCH  19  24
ATOM     24  O   UNL     1      34.848 -15.921 -21.251  0.00  0.00    -0.505 OA
ATOM     25  H   UNL     1      34.091 -15.584 -20.814  0.00  0.00    +0.292 HD
ENDBRANCH  19  24
ENDBRANCH   4  18
TORSDOF 3
ENDMDL
