MODEL 1
REMARK VINA RESULT:     -10.1      0.000      0.000
REMARK  Name = 1369
REMARK  3 active torsions:
REMARK  status: ('A' for Active; 'I' for Inactive)
REMARK    1  A    between atoms: C_3  and  N_15
REMARK    2  A    between atoms: C_4  and  S_11
REMARK    3  A    between atoms: N_15  and  C_17
REMARK                            x       y       z     vdW  Elec       q    Type
REMARK                         _______ _______ _______ _____ _____    ______ ____
ROOT
ATOM      1  C   UNL     1      33.859 -16.027 -23.370  0.00  0.00    +0.031 C 
ATOM      2  C   UNL     1      33.892 -15.733 -24.755  0.00  0.00    +0.002 C 
ATOM      3  C   UNL     1      34.299 -17.284 -22.924  0.00  0.00    +0.050 C 
ATOM      4  C   UNL     1      33.387 -15.054 -22.473  0.00  0.00    +0.113 C 
ATOM      5  C   UNL     1      34.365 -16.705 -25.652  0.00  0.00    +0.000 C 
ATOM      6  C   UNL     1      33.452 -14.476 -25.201  0.00  0.00    +0.000 C 
ATOM      7  C   UNL     1      34.765 -18.237 -23.830  0.00  0.00    +0.015 C 
ATOM      8  C   UNL     1      32.954 -13.811 -22.934  0.00  0.00    +0.019 C 
ATOM      9  C   UNL     1      34.798 -17.948 -25.191  0.00  0.00    +0.001 C 
ATOM     10  C   UNL     1      32.986 -13.522 -24.295  0.00  0.00    +0.001 C 
ENDROOT
BRANCH   4  11
ATOM     11  S   UNL     1      33.268 -15.224 -20.725  0.00  0.00    +0.042 S 
ATOM     12  O   UNL     1      32.701 -13.786 -20.205  0.00  0.00    -0.065 OA
ATOM     13  O   UNL     1      32.246 -16.218 -20.453  0.00  0.00    -0.065 OA
ATOM     14  O   UNL     1      34.624 -15.388 -20.236  0.00  0.00    -0.065 OA
ENDBRANCH   4  11
BRANCH   3  15
ATOM     15  N   UNL     1      34.314 -17.691 -21.570  0.00  0.00    -0.312 N 
ATOM     16  H   UNL     1      34.273 -16.943 -20.930  0.00  0.00    +0.152 HD
BRANCH  15  17
ATOM     17  C   UNL     1      34.376 -18.955 -20.960  0.00  0.00    +0.048 C 
ATOM     18  C   UNL     1      33.200 -19.623 -20.607  0.00  0.00    +0.015 C 
ATOM     19  C   UNL     1      35.613 -19.551 -20.701  0.00  0.00    +0.015 C 
ATOM     20  C   UNL     1      33.261 -20.878 -20.000  0.00  0.00    +0.001 C 
ATOM     21  C   UNL     1      35.673 -20.806 -20.095  0.00  0.00    +0.001 C 
ATOM     22  C   UNL     1      34.498 -21.470 -19.745  0.00  0.00    +0.000 C 
ENDBRANCH  15  17
ENDBRANCH   3  15
TORSDOF 3
ENDMDL
MODEL 2
REMARK VINA RESULT:      -9.1      2.440      6.001
REMARK  Name = 1369
REMARK  3 active torsions:
REMARK  status: ('A' for Active; 'I' for Inactive)
REMARK    1  A    between atoms: C_3  and  N_15
REMARK    2  A    between atoms: C_4  and  S_11
REMARK    3  A    between atoms: N_15  and  C_17
REMARK                            x       y       z     vdW  Elec       q    Type
REMARK                         _______ _______ _______ _____ _____    ______ ____
ROOT
ATOM      1  C   UNL     1      33.904 -15.704 -23.846  0.00  0.00    +0.031 C 
ATOM      2  C   UNL     1      34.012 -16.399 -25.074  0.00  0.00    +0.002 C 
ATOM      3  C   UNL     1      33.278 -14.448 -23.820  0.00  0.00    +0.050 C 
ATOM      4  C   UNL     1      34.427 -16.287 -22.679  0.00  0.00    +0.113 C 
ATOM      5  C   UNL     1      33.490 -15.816 -26.241  0.00  0.00    +0.000 C 
ATOM      6  C   UNL     1      34.639 -17.656 -25.100  0.00  0.00    +0.000 C 
ATOM      7  C   UNL     1      32.765 -13.884 -24.988  0.00  0.00    +0.015 C 
ATOM      8  C   UNL     1      35.046 -17.537 -22.724  0.00  0.00    +0.019 C 
ATOM      9  C   UNL     1      32.871 -14.567 -26.196  0.00  0.00    +0.001 C 
ATOM     10  C   UNL     1      35.152 -18.219 -23.932  0.00  0.00    +0.001 C 
ENDROOT
BRANCH   4  11
ATOM     11  S   UNL     1      34.392 -15.589 -21.063  0.00  0.00    +0.042 S 
ATOM     12  O   UNL     1      35.215 -16.647 -20.135  0.00  0.00    -0.065 OA
ATOM     13  O   UNL     1      35.160 -14.359 -21.105  0.00  0.00    -0.065 OA
ATOM     14  O   UNL     1      33.002 -15.593 -20.645  0.00  0.00    -0.065 OA
ENDBRANCH   4  11
BRANCH   3  15
ATOM     15  N   UNL     1      33.110 -13.661 -22.656  0.00  0.00    -0.312 N 
ATOM     16  H   UNL     1      33.427 -14.099 -21.832  0.00  0.00    +0.152 HD
BRANCH  15  17
ATOM     17  C   UNL     1      32.580 -12.378 -22.446  0.00  0.00    +0.048 C 
ATOM     18  C   UNL     1      33.008 -11.303 -23.231  0.00  0.00    +0.015 C 
ATOM     19  C   UNL     1      31.621 -12.168 -21.451  0.00  0.00    +0.015 C 
ATOM     20  C   UNL     1      32.483 -10.028 -23.022  0.00  0.00    +0.001 C 
ATOM     21  C   UNL     1      31.095 -10.892 -21.243  0.00  0.00    +0.001 C 
ATOM     22  C   UNL     1      31.526  -9.822 -22.028  0.00  0.00    +0.000 C 
ENDBRANCH  15  17
ENDBRANCH   3  15
TORSDOF 3
ENDMDL
MODEL 3
REMARK VINA RESULT:      -9.1      2.410      3.565
REMARK  Name = 1369
REMARK  3 active torsions:
REMARK  status: ('A' for Active; 'I' for Inactive)
REMARK    1  A    between atoms: C_3  and  N_15
REMARK    2  A    between atoms: C_4  and  S_11
REMARK    3  A    between atoms: N_15  and  C_17
REMARK                            x       y       z     vdW  Elec       q    Type
REMARK                         _______ _______ _______ _____ _____    ______ ____
ROOT
ATOM      1  C   UNL     1      33.537 -15.523 -22.726  0.00  0.00    +0.031 C 
ATOM      2  C   UNL     1      32.862 -14.300 -22.496  0.00  0.00    +0.002 C 
ATOM      3  C   UNL     1      33.814 -16.369 -21.641  0.00  0.00    +0.050 C 
ATOM      4  C   UNL     1      33.914 -15.863 -24.036  0.00  0.00    +0.113 C 
ATOM      5  C   UNL     1      32.485 -13.959 -21.186  0.00  0.00    +0.000 C 
ATOM      6  C   UNL     1      32.585 -13.453 -23.582  0.00  0.00    +0.000 C 
ATOM      7  C   UNL     1      33.433 -16.015 -20.346  0.00  0.00    +0.015 C 
ATOM      8  C   UNL     1      33.629 -15.010 -25.103  0.00  0.00    +0.019 C 
ATOM      9  C   UNL     1      32.770 -14.812 -20.120  0.00  0.00    +0.001 C 
ATOM     10  C   UNL     1      32.966 -13.808 -24.876  0.00  0.00    +0.001 C 
ENDROOT
BRANCH   4  11
ATOM     11  S   UNL     1      34.754 -17.330 -24.528  0.00  0.00    +0.042 S 
ATOM     12  O   UNL     1      35.147 -17.080 -26.090  0.00  0.00    -0.065 OA
ATOM     13  O   UNL     1      35.992 -17.395 -23.774  0.00  0.00    -0.065 OA
ATOM     14  O   UNL     1      33.778 -18.402 -24.464  0.00  0.00    -0.065 OA
ENDBRANCH   4  11
BRANCH   3  15
ATOM     15  N   UNL     1      34.480 -17.613 -21.746  0.00  0.00    -0.312 N 
ATOM     16  H   UNL     1      35.201 -17.621 -22.417  0.00  0.00    +0.152 HD
BRANCH  15  17
ATOM     17  C   UNL     1      34.313 -18.838 -21.080  0.00  0.00    +0.048 C 
ATOM     18  C   UNL     1      35.428 -19.598 -20.715  0.00  0.00    +0.015 C 
ATOM     19  C   UNL     1      33.030 -19.305 -20.778  0.00  0.00    +0.015 C 
ATOM     20  C   UNL     1      35.262 -20.815 -20.054  0.00  0.00    +0.001 C 
ATOM     21  C   UNL     1      32.865 -20.522 -20.117  0.00  0.00    +0.001 C 
ATOM     22  C   UNL     1      33.981 -21.277 -19.755  0.00  0.00    +0.000 C 
ENDBRANCH  15  17
ENDBRANCH   3  15
TORSDOF 3
ENDMDL
MODEL 4
REMARK VINA RESULT:      -8.6      4.003      6.555
REMARK  Name = 1369
REMARK  3 active torsions:
REMARK  status: ('A' for Active; 'I' for Inactive)
REMARK    1  A    between atoms: C_3  and  N_15
REMARK    2  A    between atoms: C_4  and  S_11
REMARK    3  A    between atoms: N_15  and  C_17
REMARK                            x       y       z     vdW  Elec       q    Type
REMARK                         _______ _______ _______ _____ _____    ______ ____
ROOT
ATOM      1  C   UNL     1      33.189  -9.726 -22.875  0.00  0.00    +0.031 C 
ATOM      2  C   UNL     1      33.807  -8.492 -23.191  0.00  0.00    +0.002 C 
ATOM      3  C   UNL     1      33.509 -10.867 -23.629  0.00  0.00    +0.050 C 
ATOM      4  C   UNL     1      32.270  -9.782 -21.814  0.00  0.00    +0.113 C 
ATOM      5  C   UNL     1      34.726  -8.437 -24.252  0.00  0.00    +0.000 C 
ATOM      6  C   UNL     1      33.488  -7.351 -22.438  0.00  0.00    +0.000 C 
ATOM      7  C   UNL     1      34.424 -10.793 -24.680  0.00  0.00    +0.015 C 
ATOM      8  C   UNL     1      31.966  -8.638 -21.076  0.00  0.00    +0.019 C 
ATOM      9  C   UNL     1      35.031  -9.580 -24.991  0.00  0.00    +0.001 C 
ATOM     10  C   UNL     1      32.573  -7.425 -21.387  0.00  0.00    +0.001 C 
ENDROOT
BRANCH   4  11
ATOM     11  S   UNL     1      31.402 -11.212 -21.266  0.00  0.00    +0.042 S 
ATOM     12  O   UNL     1      30.522 -10.700 -19.992  0.00  0.00    -0.065 OA
ATOM     13  O   UNL     1      30.470 -11.582 -22.315  0.00  0.00    -0.065 OA
ATOM     14  O   UNL     1      32.406 -12.143 -20.789  0.00  0.00    -0.065 OA
ENDBRANCH   4  11
BRANCH   3  15
ATOM     15  N   UNL     1      32.958 -12.152 -23.408  0.00  0.00    -0.312 N 
ATOM     16  H   UNL     1      32.113 -12.139 -22.902  0.00  0.00    +0.152 HD
BRANCH  15  17
ATOM     17  C   UNL     1      33.382 -13.441 -23.769  0.00  0.00    +0.048 C 
ATOM     18  C   UNL     1      34.216 -14.171 -22.918  0.00  0.00    +0.015 C 
ATOM     19  C   UNL     1      32.973 -14.001 -24.983  0.00  0.00    +0.015 C 
ATOM     20  C   UNL     1      34.638 -15.451 -23.277  0.00  0.00    +0.001 C 
ATOM     21  C   UNL     1      33.395 -15.281 -25.341  0.00  0.00    +0.001 C 
ATOM     22  C   UNL     1      34.228 -16.007 -24.489  0.00  0.00    +0.000 C 
ENDBRANCH  15  17
ENDBRANCH   3  15
TORSDOF 3
ENDMDL
MODEL 5
REMARK VINA RESULT:      -8.3      7.700      9.777
REMARK  Name = 1369
REMARK  3 active torsions:
REMARK  status: ('A' for Active; 'I' for Inactive)
REMARK    1  A    between atoms: C_3  and  N_15
REMARK    2  A    between atoms: C_4  and  S_11
REMARK    3  A    between atoms: N_15  and  C_17
REMARK                            x       y       z     vdW  Elec       q    Type
REMARK                         _______ _______ _______ _____ _____    ______ ____
ROOT
ATOM      1  C   UNL     1      34.842 -23.035 -16.007  0.00  0.00    +0.031 C 
ATOM      2  C   UNL     1      35.906 -22.912 -15.082  0.00  0.00    +0.002 C 
ATOM      3  C   UNL     1      33.621 -23.583 -15.581  0.00  0.00    +0.050 C 
ATOM      4  C   UNL     1      35.032 -22.607 -17.332  0.00  0.00    +0.113 C 
ATOM      5  C   UNL     1      35.717 -23.341 -13.757  0.00  0.00    +0.000 C 
ATOM      6  C   UNL     1      37.128 -22.365 -15.508  0.00  0.00    +0.000 C 
ATOM      7  C   UNL     1      33.451 -24.003 -14.262  0.00  0.00    +0.015 C 
ATOM      8  C   UNL     1      36.252 -22.065 -17.737  0.00  0.00    +0.019 C 
ATOM      9  C   UNL     1      34.497 -23.882 -13.352  0.00  0.00    +0.001 C 
ATOM     10  C   UNL     1      37.298 -21.945 -16.827  0.00  0.00    +0.001 C 
ENDROOT
BRANCH   4  11
ATOM     11  S   UNL     1      33.839 -22.673 -18.625  0.00  0.00    +0.042 S 
ATOM     12  O   UNL     1      34.598 -22.040 -19.923  0.00  0.00    -0.065 OA
ATOM     13  O   UNL     1      33.586 -24.073 -18.911  0.00  0.00    -0.065 OA
ATOM     14  O   UNL     1      32.765 -21.778 -18.239  0.00  0.00    -0.065 OA
ENDBRANCH   4  11
BRANCH   3  15
ATOM     15  N   UNL     1      32.489 -23.755 -16.412  0.00  0.00    -0.312 N 
ATOM     16  H   UNL     1      32.712 -23.907 -17.359  0.00  0.00    +0.152 HD
BRANCH  15  17
ATOM     17  C   UNL     1      31.109 -23.750 -16.148  0.00  0.00    +0.048 C 
ATOM     18  C   UNL     1      30.499 -24.870 -15.575  0.00  0.00    +0.015 C 
ATOM     19  C   UNL     1      30.338 -22.626 -16.458  0.00  0.00    +0.015 C 
ATOM     20  C   UNL     1      29.129 -24.866 -15.315  0.00  0.00    +0.001 C 
ATOM     21  C   UNL     1      28.968 -22.623 -16.196  0.00  0.00    +0.001 C 
ATOM     22  C   UNL     1      28.363 -23.743 -15.625  0.00  0.00    +0.000 C 
ENDBRANCH  15  17
ENDBRANCH   3  15
TORSDOF 3
ENDMDL
MODEL 6
REMARK VINA RESULT:      -8.2      3.312      6.439
REMARK  Name = 1369
REMARK  3 active torsions:
REMARK  status: ('A' for Active; 'I' for Inactive)
REMARK    1  A    between atoms: C_3  and  N_15
REMARK    2  A    between atoms: C_4  and  S_11
REMARK    3  A    between atoms: N_15  and  C_17
REMARK                            x       y       z     vdW  Elec       q    Type
REMARK                         _______ _______ _______ _____ _____    ______ ____
ROOT
ATOM      1  C   UNL     1      34.202 -15.653 -23.152  0.00  0.00    +0.031 C 
ATOM      2  C   UNL     1      34.761 -16.785 -22.513  0.00  0.00    +0.002 C 
ATOM      3  C   UNL     1      33.836 -14.539 -22.379  0.00  0.00    +0.050 C 
ATOM      4  C   UNL     1      34.025 -15.669 -24.546  0.00  0.00    +0.113 C 
ATOM      5  C   UNL     1      34.938 -16.769 -21.119  0.00  0.00    +0.000 C 
ATOM      6  C   UNL     1      35.127 -17.900 -23.285  0.00  0.00    +0.000 C 
ATOM      7  C   UNL     1      34.019 -14.541 -20.996  0.00  0.00    +0.015 C 
ATOM      8  C   UNL     1      34.394 -16.785 -25.297  0.00  0.00    +0.019 C 
ATOM      9  C   UNL     1      34.569 -15.654 -20.368  0.00  0.00    +0.001 C 
ATOM     10  C   UNL     1      34.944 -17.898 -24.669  0.00  0.00    +0.001 C 
ENDROOT
BRANCH   4  11
ATOM     11  S   UNL     1      33.351 -14.368 -25.522  0.00  0.00    +0.042 S 
ATOM     12  O   UNL     1      33.444 -14.911 -27.057  0.00  0.00    -0.065 OA
ATOM     13  O   UNL     1      31.944 -14.256 -25.186  0.00  0.00    -0.065 OA
ATOM     14  O   UNL     1      34.251 -13.239 -25.377  0.00  0.00    -0.065 OA
ENDBRANCH   4  11
BRANCH   3  15
ATOM     15  N   UNL     1      33.270 -13.353 -22.904  0.00  0.00    -0.312 N 
ATOM     16  H   UNL     1      33.376 -13.260 -23.878  0.00  0.00    +0.152 HD
BRANCH  15  17
ATOM     17  C   UNL     1      32.586 -12.283 -22.305  0.00  0.00    +0.048 C 
ATOM     18  C   UNL     1      32.632 -11.009 -22.879  0.00  0.00    +0.015 C 
ATOM     19  C   UNL     1      31.855 -12.485 -21.131  0.00  0.00    +0.015 C 
ATOM     20  C   UNL     1      31.954  -9.945 -22.283  0.00  0.00    +0.001 C 
ATOM     21  C   UNL     1      31.176 -11.421 -20.536  0.00  0.00    +0.001 C 
ATOM     22  C   UNL     1      31.225 -10.151 -21.112  0.00  0.00    +0.000 C 
ENDBRANCH  15  17
ENDBRANCH   3  15
TORSDOF 3
ENDMDL
MODEL 7
REMARK VINA RESULT:      -8.2      7.623      9.591
REMARK  Name = 1369
REMARK  3 active torsions:
REMARK  status: ('A' for Active; 'I' for Inactive)
REMARK    1  A    between atoms: C_3  and  N_15
REMARK    2  A    between atoms: C_4  and  S_11
REMARK    3  A    between atoms: N_15  and  C_17
REMARK                            x       y       z     vdW  Elec       q    Type
REMARK                         _______ _______ _______ _____ _____    ______ ____
ROOT
ATOM      1  C   UNL     1      34.934 -22.810 -16.733  0.00  0.00    +0.031 C 
ATOM      2  C   UNL     1      35.701 -22.117 -17.701  0.00  0.00    +0.002 C 
ATOM      3  C   UNL     1      33.592 -23.118 -17.012  0.00  0.00    +0.050 C 
ATOM      4  C   UNL     1      35.532 -23.175 -15.516  0.00  0.00    +0.113 C 
ATOM      5  C   UNL     1      35.103 -21.753 -18.918  0.00  0.00    +0.000 C 
ATOM      6  C   UNL     1      37.043 -21.810 -17.422  0.00  0.00    +0.000 C 
ATOM      7  C   UNL     1      33.015 -22.747 -18.227  0.00  0.00    +0.015 C 
ATOM      8  C   UNL     1      36.866 -22.861 -15.256  0.00  0.00    +0.019 C 
ATOM      9  C   UNL     1      33.769 -22.066 -19.178  0.00  0.00    +0.001 C 
ATOM     10  C   UNL     1      37.620 -22.180 -16.207  0.00  0.00    +0.001 C 
ENDROOT
BRANCH   4  11
ATOM     11  S   UNL     1      34.753 -24.037 -14.193  0.00  0.00    +0.042 S 
ATOM     12  O   UNL     1      35.879 -24.095 -13.015  0.00  0.00    -0.065 OA
ATOM     13  O   UNL     1      33.666 -23.204 -13.712  0.00  0.00    -0.065 OA
ATOM     14  O   UNL     1      34.512 -25.386 -14.668  0.00  0.00    -0.065 OA
ENDBRANCH   4  11
BRANCH   3  15
ATOM     15  N   UNL     1      32.729 -23.805 -16.127  0.00  0.00    -0.312 N 
ATOM     16  H   UNL     1      33.195 -24.421 -15.517  0.00  0.00    +0.152 HD
BRANCH  15  17
ATOM     17  C   UNL     1      31.335 -23.780 -15.950  0.00  0.00    +0.048 C 
ATOM     18  C   UNL     1      30.698 -24.803 -15.243  0.00  0.00    +0.015 C 
ATOM     19  C   UNL     1      30.579 -22.730 -16.479  0.00  0.00    +0.015 C 
ATOM     20  C   UNL     1      29.314 -24.779 -15.068  0.00  0.00    +0.001 C 
ATOM     21  C   UNL     1      29.195 -22.706 -16.303  0.00  0.00    +0.001 C 
ATOM     22  C   UNL     1      28.563 -23.730 -15.597  0.00  0.00    +0.000 C 
ENDBRANCH  15  17
ENDBRANCH   3  15
TORSDOF 3
ENDMDL
MODEL 8
REMARK VINA RESULT:      -7.8      6.702     10.026
REMARK  Name = 1369
REMARK  3 active torsions:
REMARK  status: ('A' for Active; 'I' for Inactive)
REMARK    1  A    between atoms: C_3  and  N_15
REMARK    2  A    between atoms: C_4  and  S_11
REMARK    3  A    between atoms: N_15  and  C_17
REMARK                            x       y       z     vdW  Elec       q    Type
REMARK                         _______ _______ _______ _____ _____    ______ ____
ROOT
ATOM      1  C   UNL     1      32.712 -10.183 -22.438  0.00  0.00    +0.031 C 
ATOM      2  C   UNL     1      32.576 -11.580 -22.624  0.00  0.00    +0.002 C 
ATOM      3  C   UNL     1      33.395  -9.425 -23.403  0.00  0.00    +0.050 C 
ATOM      4  C   UNL     1      32.160  -9.586 -21.293  0.00  0.00    +0.113 C 
ATOM      5  C   UNL     1      33.127 -12.177 -23.769  0.00  0.00    +0.000 C 
ATOM      6  C   UNL     1      31.892 -12.338 -21.658  0.00  0.00    +0.000 C 
ATOM      7  C   UNL     1      33.937 -10.036 -24.535  0.00  0.00    +0.015 C 
ATOM      8  C   UNL     1      31.484 -10.354 -20.345  0.00  0.00    +0.019 C 
ATOM      9  C   UNL     1      33.803 -11.409 -24.717  0.00  0.00    +0.001 C 
ATOM     10  C   UNL     1      31.351 -11.727 -20.527  0.00  0.00    +0.001 C 
ENDROOT
BRANCH   4  11
ATOM     11  S   UNL     1      32.220  -7.875 -20.882  0.00  0.00    +0.042 S 
ATOM     12  O   UNL     1      31.648  -7.793 -19.357  0.00  0.00    -0.065 OA
ATOM     13  O   UNL     1      33.618  -7.486 -20.842  0.00  0.00    -0.065 OA
ATOM     14  O   UNL     1      31.280  -7.209 -21.763  0.00  0.00    -0.065 OA
ENDBRANCH   4  11
BRANCH   3  15
ATOM     15  N   UNL     1      33.594  -8.027 -23.328  0.00  0.00    -0.312 N 
ATOM     16  H   UNL     1      33.801  -7.704 -22.421  0.00  0.00    +0.152 HD
BRANCH  15  17
ATOM     17  C   UNL     1      33.553  -7.009 -24.296  0.00  0.00    +0.048 C 
ATOM     18  C   UNL     1      34.683  -6.728 -25.069  0.00  0.00    +0.015 C 
ATOM     19  C   UNL     1      32.382  -6.271 -24.490  0.00  0.00    +0.015 C 
ATOM     20  C   UNL     1      34.642  -5.717 -26.029  0.00  0.00    +0.001 C 
ATOM     21  C   UNL     1      32.342  -5.260 -25.451  0.00  0.00    +0.001 C 
ATOM     22  C   UNL     1      33.472  -4.983 -26.220  0.00  0.00    +0.000 C 
ENDBRANCH  15  17
ENDBRANCH   3  15
TORSDOF 3
ENDMDL
MODEL 9
REMARK VINA RESULT:      -7.7      5.197      9.216
REMARK  Name = 1369
REMARK  3 active torsions:
REMARK  status: ('A' for Active; 'I' for Inactive)
REMARK    1  A    between atoms: C_3  and  N_15
REMARK    2  A    between atoms: C_4  and  S_11
REMARK    3  A    between atoms: N_15  and  C_17
REMARK                            x       y       z     vdW  Elec       q    Type
REMARK                         _______ _______ _______ _____ _____    ______ ____
ROOT
ATOM      1  C   UNL     1      34.959 -22.964 -16.019  0.00  0.00    +0.031 C 
ATOM      2  C   UNL     1      35.908 -23.012 -14.970  0.00  0.00    +0.002 C 
ATOM      3  C   UNL     1      35.335 -22.428 -17.262  0.00  0.00    +0.050 C 
ATOM      4  C   UNL     1      33.662 -23.454 -15.795  0.00  0.00    +0.113 C 
ATOM      5  C   UNL     1      37.205 -22.522 -15.194  0.00  0.00    +0.000 C 
ATOM      6  C   UNL     1      35.532 -23.549 -13.727  0.00  0.00    +0.000 C 
ATOM      7  C   UNL     1      36.629 -21.945 -17.466  0.00  0.00    +0.015 C 
ATOM      8  C   UNL     1      33.306 -23.984 -14.555  0.00  0.00    +0.019 C 
ATOM      9  C   UNL     1      37.561 -21.993 -16.435  0.00  0.00    +0.001 C 
ATOM     10  C   UNL     1      34.238 -24.031 -13.523  0.00  0.00    +0.001 C 
ENDROOT
BRANCH   4  11
ATOM     11  S   UNL     1      32.346 -23.484 -16.965  0.00  0.00    +0.042 S 
ATOM     12  O   UNL     1      31.138 -24.279 -16.210  0.00  0.00    -0.065 OA
ATOM     13  O   UNL     1      31.908 -22.115 -17.162  0.00  0.00    -0.065 OA
ATOM     14  O   UNL     1      32.805 -24.294 -18.077  0.00  0.00    -0.065 OA
ENDBRANCH   4  11
BRANCH   3  15
ATOM     15  N   UNL     1      34.478 -22.327 -18.382  0.00  0.00    -0.312 N 
ATOM     16  H   UNL     1      33.829 -23.065 -18.452  0.00  0.00    +0.152 HD
BRANCH  15  17
ATOM     17  C   UNL     1      34.372 -21.380 -19.414  0.00  0.00    +0.048 C 
ATOM     18  C   UNL     1      35.520 -20.914 -20.061  0.00  0.00    +0.015 C 
ATOM     19  C   UNL     1      33.118 -20.899 -19.801  0.00  0.00    +0.015 C 
ATOM     20  C   UNL     1      35.416 -19.972 -21.085  0.00  0.00    +0.001 C 
ATOM     21  C   UNL     1      33.014 -19.958 -20.826  0.00  0.00    +0.001 C 
ATOM     22  C   UNL     1      34.162 -19.495 -21.468  0.00  0.00    +0.000 C 
ENDBRANCH  15  17
ENDBRANCH   3  15
TORSDOF 3
ENDMDL
