MODEL 1
REMARK VINA RESULT:      -6.9      0.000      0.000
REMARK  Name = 62930
REMARK  5 active torsions:
REMARK  status: ('A' for Active; 'I' for Inactive)
REMARK    1  A    between atoms: N_1  and  C_18
REMARK    2  A    between atoms: N_1  and  O_21
REMARK    3  A    between atoms: C_2  and  C_23
REMARK    4  A    between atoms: C_6  and  O_19
REMARK    5  A    between atoms: C_6  and  C_25
REMARK                            x       y       z     vdW  Elec       q    Type
REMARK                         _______ _______ _______ _____ _____    ______ ____
ROOT
ATOM      1  C   UNL     1      36.152 -23.827 -15.034  0.00  0.00    +0.033 C 
ATOM      2  C   UNL     1      35.139 -24.265 -13.951  0.00  0.00    +0.003 C 
ATOM      3  C   UNL     1      33.854 -23.432 -13.967  0.00  0.00    +0.000 C 
ATOM      4  C   UNL     1      33.173 -23.581 -15.369  0.00  0.00    +0.000 C 
ATOM      5  C   UNL     1      37.353 -24.761 -14.689  0.00  0.00    +0.142 C 
ATOM      6  C   UNL     1      35.492 -24.015 -16.413  0.00  0.00    +0.003 C 
ATOM      7  C   UNL     1      35.974 -24.304 -12.674  0.00  0.00    +0.004 C 
ATOM      8  C   UNL     1      34.152 -23.261 -16.522  0.00  0.00    +0.000 C 
ATOM      9  C   UNL     1      31.881 -22.719 -15.399  0.00  0.00    +0.004 C 
ATOM     10  C   UNL     1      37.381 -24.738 -13.136  0.00  0.00    +0.039 C 
ATOM     11  C   UNL     1      32.890 -23.835 -12.833  0.00  0.00    +0.000 C 
ATOM     12  C   UNL     1      31.568 -23.067 -12.906  0.00  0.00    +0.004 C 
ATOM     13  C   UNL     1      30.979 -23.217 -14.283  0.00  0.00    +0.023 C 
ATOM     14  C   UNL     1      31.133 -22.663 -16.741  0.00  0.00    +0.007 C 
ATOM     15  C   UNL     1      30.308 -23.911 -16.998  0.00  0.00    +0.048 C 
ATOM     16  C   UNL     1      29.796 -23.821 -14.479  0.00  0.00    -0.010 C 
ATOM     17  C   UNL     1      29.339 -24.125 -15.857  0.00  0.00    +0.081 C 
ENDROOT
BRANCH   5  18
ATOM     18  O   UNL     1      38.581 -24.299 -15.231  0.00  0.00    -0.375 OA
ATOM     19  H   UNL     1      38.453 -24.061 -16.162  0.00  0.00    +0.211 HD
ENDBRANCH   5  18
BRANCH   1  20
ATOM     20  C   UNL     1      36.591 -22.338 -14.905  0.00  0.00    +0.003 C 
ATOM     21  C   UNL     1      37.113 -21.832 -16.224  0.00  0.00    +0.000 C 
ENDBRANCH   1  20
BRANCH   5  22
ATOM     22  C   UNL     1      37.165 -26.150 -15.158  0.00  0.00    -0.053 C 
ATOM     23  C   UNL     1      37.012 -27.277 -15.540  0.00  0.00    -0.012 C 
ENDBRANCH   5  22
BRANCH  17  24
ATOM     24  N   UNL     1      28.170 -24.613 -16.115  0.00  0.00    -0.139 NA
BRANCH  24  25
ATOM     25  O   UNL     1      27.801 -24.211 -17.399  0.00  0.00    -0.266 OA
ATOM     26  H   UNL     1      27.758 -23.300 -17.610  0.00  0.00    +0.247 HD
ENDBRANCH  24  25
ENDBRANCH  17  24
TORSDOF 5
ENDMDL
MODEL 2
REMARK VINA RESULT:      -6.8      1.512      3.223
REMARK  Name = 62930
REMARK  5 active torsions:
REMARK  status: ('A' for Active; 'I' for Inactive)
REMARK    1  A    between atoms: N_1  and  C_18
REMARK    2  A    between atoms: N_1  and  O_21
REMARK    3  A    between atoms: C_2  and  C_23
REMARK    4  A    between atoms: C_6  and  O_19
REMARK    5  A    between atoms: C_6  and  C_25
REMARK                            x       y       z     vdW  Elec       q    Type
REMARK                         _______ _______ _______ _____ _____    ______ ____
ROOT
ATOM      1  C   UNL     1      36.268 -24.743 -14.279  0.00  0.00    +0.033 C 
ATOM      2  C   UNL     1      35.837 -23.566 -15.186  0.00  0.00    +0.003 C 
ATOM      3  C   UNL     1      34.543 -23.850 -15.954  0.00  0.00    +0.000 C 
ATOM      4  C   UNL     1      33.395 -24.126 -14.925  0.00  0.00    +0.000 C 
ATOM      5  C   UNL     1      37.629 -24.201 -13.744  0.00  0.00    +0.142 C 
ATOM      6  C   UNL     1      35.154 -24.983 -13.243  0.00  0.00    +0.003 C 
ATOM      7  C   UNL     1      37.103 -23.239 -15.974  0.00  0.00    +0.004 C 
ATOM      8  C   UNL     1      33.785 -25.224 -13.908  0.00  0.00    +0.000 C 
ATOM      9  C   UNL     1      32.085 -24.438 -15.698  0.00  0.00    +0.004 C 
ATOM     10  C   UNL     1      38.261 -23.540 -15.000  0.00  0.00    +0.039 C 
ATOM     11  C   UNL     1      34.172 -22.696 -16.907  0.00  0.00    +0.000 C 
ATOM     12  C   UNL     1      32.831 -22.940 -17.605  0.00  0.00    +0.004 C 
ATOM     13  C   UNL     1      31.777 -23.234 -16.572  0.00  0.00    +0.023 C 
ATOM     14  C   UNL     1      30.870 -24.837 -14.845  0.00  0.00    +0.007 C 
ATOM     15  C   UNL     1      30.202 -23.641 -14.193  0.00  0.00    +0.048 C 
ATOM     16  C   UNL     1      30.714 -22.431 -16.404  0.00  0.00    -0.010 C 
ATOM     17  C   UNL     1      29.802 -22.640 -15.253  0.00  0.00    +0.081 C 
ENDROOT
BRANCH   5  18
ATOM     18  O   UNL     1      38.464 -25.227 -13.229  0.00  0.00    -0.375 OA
ATOM     19  H   UNL     1      39.212 -25.368 -13.831  0.00  0.00    +0.211 HD
ENDBRANCH   5  18
BRANCH   1  20
ATOM     20  C   UNL     1      36.500 -26.071 -15.058  0.00  0.00    +0.003 C 
ATOM     21  C   UNL     1      36.918 -27.164 -14.111  0.00  0.00    +0.000 C 
ENDBRANCH   1  20
BRANCH   5  22
ATOM     22  C   UNL     1      37.476 -23.189 -12.679  0.00  0.00    -0.053 C 
ATOM     23  C   UNL     1      37.352 -22.368 -11.813  0.00  0.00    -0.012 C 
ENDBRANCH   5  22
BRANCH  17  24
ATOM     24  N   UNL     1      28.709 -21.966 -15.095  0.00  0.00    -0.139 NA
BRANCH  24  25
ATOM     25  O   UNL     1      28.112 -21.800 -16.344  0.00  0.00    -0.266 OA
ATOM     26  H   UNL     1      28.639 -21.802 -17.119  0.00  0.00    +0.247 HD
ENDBRANCH  24  25
ENDBRANCH  17  24
TORSDOF 5
ENDMDL
MODEL 3
REMARK VINA RESULT:      -6.5      2.621      6.897
REMARK  Name = 62930
REMARK  5 active torsions:
REMARK  status: ('A' for Active; 'I' for Inactive)
REMARK    1  A    between atoms: N_1  and  C_18
REMARK    2  A    between atoms: N_1  and  O_21
REMARK    3  A    between atoms: C_2  and  C_23
REMARK    4  A    between atoms: C_6  and  O_19
REMARK    5  A    between atoms: C_6  and  C_25
REMARK                            x       y       z     vdW  Elec       q    Type
REMARK                         _______ _______ _______ _____ _____    ______ ____
ROOT
ATOM      1  C   UNL     1      31.543 -23.622 -14.616  0.00  0.00    +0.033 C 
ATOM      2  C   UNL     1      32.550 -23.523 -15.786  0.00  0.00    +0.003 C 
ATOM      3  C   UNL     1      33.969 -23.185 -15.321  0.00  0.00    +0.000 C 
ATOM      4  C   UNL     1      34.460 -24.304 -14.341  0.00  0.00    +0.000 C 
ATOM      5  C   UNL     1      30.218 -23.856 -15.406  0.00  0.00    +0.142 C 
ATOM      6  C   UNL     1      32.008 -24.752 -13.678  0.00  0.00    +0.003 C 
ATOM      7  C   UNL     1      31.859 -22.589 -16.776  0.00  0.00    +0.004 C 
ATOM      8  C   UNL     1      33.455 -24.544 -13.191  0.00  0.00    +0.000 C 
ATOM      9  C   UNL     1      35.891 -23.954 -13.848  0.00  0.00    +0.004 C 
ATOM     10  C   UNL     1      30.354 -22.887 -16.612  0.00  0.00    +0.039 C 
ATOM     11  C   UNL     1      34.941 -23.017 -16.507  0.00  0.00    +0.000 C 
ATOM     12  C   UNL     1      36.377 -22.771 -16.039  0.00  0.00    +0.004 C 
ATOM     13  C   UNL     1      36.781 -23.854 -15.075  0.00  0.00    +0.023 C 
ATOM     14  C   UNL     1      36.495 -24.894 -12.793  0.00  0.00    +0.007 C 
ATOM     15  C   UNL     1      37.017 -26.185 -13.397  0.00  0.00    +0.048 C 
ATOM     16  C   UNL     1      37.789 -24.698 -15.348  0.00  0.00    -0.010 C 
ATOM     17  C   UNL     1      38.032 -25.870 -14.472  0.00  0.00    +0.081 C 
ENDROOT
BRANCH   5  18
ATOM     18  O   UNL     1      29.062 -23.560 -14.638  0.00  0.00    -0.375 OA
ATOM     19  H   UNL     1      29.175 -23.905 -13.738  0.00  0.00    +0.211 HD
ENDBRANCH   5  18
BRANCH   1  20
ATOM     20  C   UNL     1      31.433 -22.312 -13.781  0.00  0.00    +0.003 C 
ATOM     21  C   UNL     1      31.098 -22.634 -12.349  0.00  0.00    +0.000 C 
ENDBRANCH   1  20
BRANCH   5  22
ATOM     22  C   UNL     1      30.070 -25.240 -15.900  0.00  0.00    -0.053 C 
ATOM     23  C   UNL     1      29.948 -26.365 -16.300  0.00  0.00    -0.012 C 
ENDBRANCH   5  22
BRANCH  17  24
ATOM     24  N   UNL     1      39.045 -26.659 -14.624  0.00  0.00    -0.139 NA
BRANCH  24  25
ATOM     25  O   UNL     1      39.920 -26.078 -15.542  0.00  0.00    -0.266 OA
ATOM     26  H   UNL     1      39.611 -25.829 -16.390  0.00  0.00    +0.247 HD
ENDBRANCH  24  25
ENDBRANCH  17  24
TORSDOF 5
ENDMDL
MODEL 4
REMARK VINA RESULT:      -6.2     10.661     12.538
REMARK  Name = 62930
REMARK  5 active torsions:
REMARK  status: ('A' for Active; 'I' for Inactive)
REMARK    1  A    between atoms: N_1  and  C_18
REMARK    2  A    between atoms: N_1  and  O_21
REMARK    3  A    between atoms: C_2  and  C_23
REMARK    4  A    between atoms: C_6  and  O_19
REMARK    5  A    between atoms: C_6  and  C_25
REMARK                            x       y       z     vdW  Elec       q    Type
REMARK                         _______ _______ _______ _____ _____    ______ ____
ROOT
ATOM      1  C   UNL     1      34.478 -18.098 -22.328  0.00  0.00    +0.033 C 
ATOM      2  C   UNL     1      34.679 -17.665 -23.799  0.00  0.00    +0.003 C 
ATOM      3  C   UNL     1      33.706 -16.564 -24.233  0.00  0.00    +0.000 C 
ATOM      4  C   UNL     1      33.919 -15.312 -23.316  0.00  0.00    +0.000 C 
ATOM      5  C   UNL     1      35.507 -19.268 -22.238  0.00  0.00    +0.142 C 
ATOM      6  C   UNL     1      34.731 -16.873 -21.429  0.00  0.00    +0.003 C 
ATOM      7  C   UNL     1      34.681 -18.986 -24.564  0.00  0.00    +0.004 C 
ATOM      8  C   UNL     1      33.840 -15.676 -21.816  0.00  0.00    +0.000 C 
ATOM      9  C   UNL     1      32.919 -14.200 -23.736  0.00  0.00    +0.004 C 
ATOM     10  C   UNL     1      35.324 -20.000 -23.595  0.00  0.00    +0.039 C 
ATOM     11  C   UNL     1      33.872 -16.200 -25.722  0.00  0.00    +0.000 C 
ATOM     12  C   UNL     1      32.965 -15.037 -26.131  0.00  0.00    +0.004 C 
ATOM     13  C   UNL     1      33.187 -13.878 -25.197  0.00  0.00    +0.023 C 
ATOM     14  C   UNL     1      32.916 -12.928 -22.873  0.00  0.00    +0.007 C 
ATOM     15  C   UNL     1      34.078 -12.006 -23.195  0.00  0.00    +0.048 C 
ATOM     16  C   UNL     1      33.665 -12.703 -25.636  0.00  0.00    -0.010 C 
ATOM     17  C   UNL     1      34.056 -11.652 -24.665  0.00  0.00    +0.081 C 
ENDROOT
BRANCH   5  18
ATOM     18  O   UNL     1      35.252 -20.139 -21.146  0.00  0.00    -0.375 OA
ATOM     19  H   UNL     1      36.089 -20.513 -20.829  0.00  0.00    +0.211 HD
ENDBRANCH   5  18
BRANCH   1  20
ATOM     20  C   UNL     1      33.047 -18.632 -22.029  0.00  0.00    +0.003 C 
ATOM     21  C   UNL     1      32.990 -19.226 -20.647  0.00  0.00    +0.000 C 
ENDBRANCH   1  20
BRANCH   5  22
ATOM     22  C   UNL     1      36.904 -18.807 -22.110  0.00  0.00    -0.053 C 
ATOM     23  C   UNL     1      38.040 -18.433 -22.007  0.00  0.00    -0.012 C 
ENDBRANCH   5  22
BRANCH  17  24
ATOM     24  N   UNL     1      34.426 -10.467 -25.027  0.00  0.00    -0.139 NA
BRANCH  24  25
ATOM     25  O   UNL     1      35.236  -9.936 -24.023  0.00  0.00    -0.266 OA
ATOM     26  H   UNL     1      35.870  -9.279 -24.231  0.00  0.00    +0.247 HD
ENDBRANCH  24  25
ENDBRANCH  17  24
TORSDOF 5
ENDMDL
MODEL 5
REMARK VINA RESULT:      -5.9     13.913     16.025
REMARK  Name = 62930
REMARK  5 active torsions:
REMARK  status: ('A' for Active; 'I' for Inactive)
REMARK    1  A    between atoms: N_1  and  C_18
REMARK    2  A    between atoms: N_1  and  O_21
REMARK    3  A    between atoms: C_2  and  C_23
REMARK    4  A    between atoms: C_6  and  O_19
REMARK    5  A    between atoms: C_6  and  C_25
REMARK                            x       y       z     vdW  Elec       q    Type
REMARK                         _______ _______ _______ _____ _____    ______ ____
ROOT
ATOM      1  C   UNL     1      32.171  -8.511 -23.168  0.00  0.00    +0.033 C 
ATOM      2  C   UNL     1      32.544  -9.009 -21.753  0.00  0.00    +0.003 C 
ATOM      3  C   UNL     1      31.962 -10.390 -21.435  0.00  0.00    +0.000 C 
ATOM      4  C   UNL     1      32.508 -11.420 -22.481  0.00  0.00    +0.000 C 
ATOM      5  C   UNL     1      32.797  -7.083 -23.137  0.00  0.00    +0.142 C 
ATOM      6  C   UNL     1      32.746  -9.506 -24.194  0.00  0.00    +0.003 C 
ATOM      7  C   UNL     1      32.178  -7.833 -20.851  0.00  0.00    +0.004 C 
ATOM      8  C   UNL     1      32.269 -10.948 -23.934  0.00  0.00    +0.000 C 
ATOM      9  C   UNL     1      31.903 -12.818 -22.178  0.00  0.00    +0.004 C 
ATOM     10  C   UNL     1      32.452  -6.580 -21.709  0.00  0.00    +0.039 C 
ATOM     11  C   UNL     1      32.283 -10.834 -19.994  0.00  0.00    +0.000 C 
ATOM     12  C   UNL     1      31.781 -12.252 -19.708  0.00  0.00    +0.004 C 
ATOM     13  C   UNL     1      32.307 -13.190 -20.761  0.00  0.00    +0.023 C 
ATOM     14  C   UNL     1      32.249 -13.939 -23.172  0.00  0.00    +0.007 C 
ATOM     15  C   UNL     1      33.645 -14.494 -22.955  0.00  0.00    +0.048 C 
ATOM     16  C   UNL     1      33.130 -14.204 -20.452  0.00  0.00    -0.010 C 
ATOM     17  C   UNL     1      33.783 -14.984 -21.531  0.00  0.00    +0.081 C 
ENDROOT
BRANCH   5  18
ATOM     18  O   UNL     1      32.254  -6.224 -24.129  0.00  0.00    -0.375 OA
ATOM     19  H   UNL     1      32.777  -5.409 -24.172  0.00  0.00    +0.211 HD
ENDBRANCH   5  18
BRANCH   1  20
ATOM     20  C   UNL     1      30.634  -8.407 -23.403  0.00  0.00    +0.003 C 
ATOM     21  C   UNL     1      30.353  -7.734 -24.720  0.00  0.00    +0.000 C 
ENDBRANCH   1  20
BRANCH   5  22
ATOM     22  C   UNL     1      34.263  -7.085 -23.319  0.00  0.00    -0.053 C 
ATOM     23  C   UNL     1      35.454  -7.088 -23.468  0.00  0.00    -0.012 C 
ENDBRANCH   5  22
BRANCH  17  24
ATOM     24  N   UNL     1      34.504 -16.032 -21.299  0.00  0.00    -0.139 NA
BRANCH  24  25
ATOM     25  O   UNL     1      34.998 -15.944 -19.998  0.00  0.00    -0.266 OA
ATOM     26  H   UNL     1      34.452 -16.175 -19.273  0.00  0.00    +0.247 HD
ENDBRANCH  24  25
ENDBRANCH  17  24
TORSDOF 5
ENDMDL
MODEL 6
REMARK VINA RESULT:      -5.7      6.115      8.677
REMARK  Name = 62930
REMARK  5 active torsions:
REMARK  status: ('A' for Active; 'I' for Inactive)
REMARK    1  A    between atoms: N_1  and  C_18
REMARK    2  A    between atoms: N_1  and  O_21
REMARK    3  A    between atoms: C_2  and  C_23
REMARK    4  A    between atoms: C_6  and  O_19
REMARK    5  A    between atoms: C_6  and  C_25
REMARK                            x       y       z     vdW  Elec       q    Type
REMARK                         _______ _______ _______ _____ _____    ______ ____
ROOT
ATOM      1  C   UNL     1      35.507 -18.360 -21.871  0.00  0.00    +0.033 C 
ATOM      2  C   UNL     1      34.269 -18.957 -21.161  0.00  0.00    +0.003 C 
ATOM      3  C   UNL     1      34.495 -20.394 -20.683  0.00  0.00    +0.000 C 
ATOM      4  C   UNL     1      35.696 -20.410 -19.678  0.00  0.00    +0.000 C 
ATOM      5  C   UNL     1      34.933 -16.981 -22.321  0.00  0.00    +0.142 C 
ATOM      6  C   UNL     1      36.673 -18.339 -20.866  0.00  0.00    +0.003 C 
ATOM      7  C   UNL     1      33.128 -18.677 -22.135  0.00  0.00    +0.004 C 
ATOM      8  C   UNL     1      36.953 -19.734 -20.272  0.00  0.00    +0.000 C 
ATOM      9  C   UNL     1      35.944 -21.869 -19.207  0.00  0.00    +0.004 C 
ATOM     10  C   UNL     1      33.500 -17.338 -22.803  0.00  0.00    +0.039 C 
ATOM     11  C   UNL     1      33.227 -20.996 -20.045  0.00  0.00    +0.000 C 
ATOM     12  C   UNL     1      33.478 -22.398 -19.484  0.00  0.00    +0.004 C 
ATOM     13  C   UNL     1      34.662 -22.359 -18.555  0.00  0.00    +0.023 C 
ATOM     14  C   UNL     1      37.159 -22.090 -18.291  0.00  0.00    +0.007 C 
ATOM     15  C   UNL     1      36.887 -21.672 -16.857  0.00  0.00    +0.048 C 
ATOM     16  C   UNL     1      34.542 -22.652 -17.250  0.00  0.00    -0.010 C 
ATOM     17  C   UNL     1      35.680 -22.415 -16.330  0.00  0.00    +0.081 C 
ENDROOT
BRANCH   5  18
ATOM     18  O   UNL     1      35.692 -16.385 -23.363  0.00  0.00    -0.375 OA
ATOM     19  H   UNL     1      35.364 -16.698 -24.221  0.00  0.00    +0.211 HD
ENDBRANCH   5  18
BRANCH   1  20
ATOM     20  C   UNL     1      35.957 -19.175 -23.120  0.00  0.00    +0.003 C 
ATOM     21  C   UNL     1      34.802 -19.356 -24.069  0.00  0.00    +0.000 C 
ENDBRANCH   1  20
BRANCH   5  22
ATOM     22  C   UNL     1      34.853 -15.996 -21.223  0.00  0.00    -0.053 C 
ATOM     23  C   UNL     1      34.788 -15.196 -20.332  0.00  0.00    -0.012 C 
ENDBRANCH   5  22
BRANCH  17  24
ATOM     24  N   UNL     1      35.661 -22.770 -15.086  0.00  0.00    -0.139 NA
BRANCH  24  25
ATOM     25  O   UNL     1      34.339 -22.735 -14.642  0.00  0.00    -0.266 OA
ATOM     26  H   UNL     1      34.003 -21.963 -14.232  0.00  0.00    +0.247 HD
ENDBRANCH  24  25
ENDBRANCH  17  24
TORSDOF 5
ENDMDL
MODEL 7
REMARK VINA RESULT:      -5.6     20.188     22.227
REMARK  Name = 62930
REMARK  5 active torsions:
REMARK  status: ('A' for Active; 'I' for Inactive)
REMARK    1  A    between atoms: N_1  and  C_18
REMARK    2  A    between atoms: N_1  and  O_21
REMARK    3  A    between atoms: C_2  and  C_23
REMARK    4  A    between atoms: C_6  and  O_19
REMARK    5  A    between atoms: C_6  and  C_25
REMARK                            x       y       z     vdW  Elec       q    Type
REMARK                         _______ _______ _______ _____ _____    ______ ____
ROOT
ATOM      1  C   UNL     1      33.582  -4.074 -27.548  0.00  0.00    +0.033 C 
ATOM      2  C   UNL     1      32.806  -3.449 -26.366  0.00  0.00    +0.003 C 
ATOM      3  C   UNL     1      32.020  -4.485 -25.557  0.00  0.00    +0.000 C 
ATOM      4  C   UNL     1      33.022  -5.545 -24.985  0.00  0.00    +0.000 C 
ATOM      5  C   UNL     1      34.162  -2.787 -28.213  0.00  0.00    +0.142 C 
ATOM      6  C   UNL     1      34.595  -5.084 -26.977  0.00  0.00    +0.003 C 
ATOM      7  C   UNL     1      32.048  -2.289 -27.007  0.00  0.00    +0.004 C 
ATOM      8  C   UNL     1      33.916  -6.148 -26.092  0.00  0.00    +0.000 C 
ATOM      9  C   UNL     1      32.228  -6.612 -24.183  0.00  0.00    +0.004 C 
ATOM     10  C   UNL     1      32.978  -1.786 -28.130  0.00  0.00    +0.039 C 
ATOM     11  C   UNL     1      31.195  -3.833 -24.429  0.00  0.00    +0.000 C 
ATOM     12  C   UNL     1      30.483  -4.877 -23.564  0.00  0.00    +0.004 C 
ATOM     13  C   UNL     1      31.487  -5.886 -23.073  0.00  0.00    +0.023 C 
ATOM     14  C   UNL     1      33.042  -7.794 -23.633  0.00  0.00    +0.007 C 
ATOM     15  C   UNL     1      33.820  -7.429 -22.381  0.00  0.00    +0.048 C 
ATOM     16  C   UNL     1      31.743  -6.042 -21.764  0.00  0.00    -0.010 C 
ATOM     17  C   UNL     1      32.872  -6.900 -21.328  0.00  0.00    +0.081 C 
ENDROOT
BRANCH   5  18
ATOM     18  O   UNL     1      34.562  -2.998 -29.559  0.00  0.00    -0.375 OA
ATOM     19  H   UNL     1      33.827  -2.781 -30.153  0.00  0.00    +0.211 HD
ENDBRANCH   5  18
BRANCH   1  20
ATOM     20  C   UNL     1      32.668  -4.823 -28.562  0.00  0.00    +0.003 C 
ATOM     21  C   UNL     1      33.404  -5.056 -29.854  0.00  0.00    +0.000 C 
ENDBRANCH   1  20
BRANCH   5  22
ATOM     22  C   UNL     1      35.328  -2.234 -27.495  0.00  0.00    -0.053 C 
ATOM     23  C   UNL     1      36.275  -1.786 -26.910  0.00  0.00    -0.012 C 
ENDBRANCH   5  22
BRANCH  17  24
ATOM     24  N   UNL     1      33.106  -7.170 -20.085  0.00  0.00    -0.139 NA
BRANCH  24  25
ATOM     25  O   UNL     1      32.836  -8.521 -19.872  0.00  0.00    -0.266 OA
ATOM     26  H   UNL     1      33.317  -8.999 -19.226  0.00  0.00    +0.247 HD
ENDBRANCH  24  25
ENDBRANCH  17  24
TORSDOF 5
ENDMDL
MODEL 8
REMARK VINA RESULT:      -4.7     21.747     23.831
REMARK  Name = 62930
REMARK  5 active torsions:
REMARK  status: ('A' for Active; 'I' for Inactive)
REMARK    1  A    between atoms: N_1  and  C_18
REMARK    2  A    between atoms: N_1  and  O_21
REMARK    3  A    between atoms: C_2  and  C_23
REMARK    4  A    between atoms: C_6  and  O_19
REMARK    5  A    between atoms: C_6  and  C_25
REMARK                            x       y       z     vdW  Elec       q    Type
REMARK                         _______ _______ _______ _____ _____    ______ ____
ROOT
ATOM      1  C   UNL     1      36.683  -3.878 -28.622  0.00  0.00    +0.033 C 
ATOM      2  C   UNL     1      35.644  -2.759 -28.379  0.00  0.00    +0.003 C 
ATOM      3  C   UNL     1      34.228  -3.300 -28.161  0.00  0.00    +0.000 C 
ATOM      4  C   UNL     1      34.235  -4.247 -26.914  0.00  0.00    +0.000 C 
ATOM      5  C   UNL     1      37.954  -3.022 -28.911  0.00  0.00    +0.142 C 
ATOM      6  C   UNL     1      36.716  -4.782 -27.376  0.00  0.00    +0.003 C 
ATOM      7  C   UNL     1      35.890  -1.786 -29.528  0.00  0.00    +0.004 C 
ATOM      8  C   UNL     1      35.323  -5.340 -27.026  0.00  0.00    +0.000 C 
ATOM      9  C   UNL     1      32.806  -4.818 -26.702  0.00  0.00    +0.004 C 
ATOM     10  C   UNL     1      37.407  -1.869 -29.797  0.00  0.00    +0.039 C 
ATOM     11  C   UNL     1      33.195  -2.167 -27.995  0.00  0.00    +0.000 C 
ATOM     12  C   UNL     1      31.797  -2.708 -27.685  0.00  0.00    +0.004 C 
ATOM     13  C   UNL     1      31.871  -3.636 -26.503  0.00  0.00    +0.023 C 
ATOM     14  C   UNL     1      32.647  -5.853 -25.577  0.00  0.00    +0.007 C 
ATOM     15  C   UNL     1      32.597  -5.213 -24.202  0.00  0.00    +0.048 C 
ATOM     16  C   UNL     1      31.225  -3.368 -25.357  0.00  0.00    -0.010 C 
ATOM     17  C   UNL     1      31.476  -4.198 -24.153  0.00  0.00    +0.081 C 
ENDROOT
BRANCH   5  18
ATOM     18  O   UNL     1      38.966  -3.753 -29.588  0.00  0.00    -0.375 OA
ATOM     19  H   UNL     1      38.569  -4.255 -30.317  0.00  0.00    +0.211 HD
ENDBRANCH   5  18
BRANCH   1  20
ATOM     20  C   UNL     1      36.356  -4.768 -29.858  0.00  0.00    +0.003 C 
ATOM     21  C   UNL     1      37.206  -6.011 -29.844  0.00  0.00    +0.000 C 
ENDBRANCH   1  20
BRANCH   5  22
ATOM     22  C   UNL     1      38.568  -2.458 -27.691  0.00  0.00    -0.053 C 
ATOM     23  C   UNL     1      39.066  -2.001 -26.700  0.00  0.00    -0.012 C 
ENDBRANCH   5  22
BRANCH  17  24
ATOM     24  N   UNL     1      30.813  -4.053 -23.053  0.00  0.00    -0.139 NA
BRANCH  24  25
ATOM     25  O   UNL     1      31.466  -4.771 -22.051  0.00  0.00    -0.266 OA
ATOM     26  H   UNL     1      31.704  -5.665 -22.194  0.00  0.00    +0.247 HD
ENDBRANCH  24  25
ENDBRANCH  17  24
TORSDOF 5
ENDMDL
MODEL 9
REMARK VINA RESULT:      -4.7     15.422     17.715
REMARK  Name = 62930
REMARK  5 active torsions:
REMARK  status: ('A' for Active; 'I' for Inactive)
REMARK    1  A    between atoms: N_1  and  C_18
REMARK    2  A    between atoms: N_1  and  O_21
REMARK    3  A    between atoms: C_2  and  C_23
REMARK    4  A    between atoms: C_6  and  O_19
REMARK    5  A    between atoms: C_6  and  C_25
REMARK                            x       y       z     vdW  Elec       q    Type
REMARK                         _______ _______ _______ _____ _____    ______ ____
ROOT
ATOM      1  C   UNL     1      32.699  -7.653 -22.781  0.00  0.00    +0.033 C 
ATOM      2  C   UNL     1      33.367  -7.948 -24.145  0.00  0.00    +0.003 C 
ATOM      3  C   UNL     1      34.105  -9.289 -24.166  0.00  0.00    +0.000 C 
ATOM      4  C   UNL     1      33.082 -10.435 -23.859  0.00  0.00    +0.000 C 
ATOM      5  C   UNL     1      32.149  -6.216 -23.044  0.00  0.00    +0.142 C 
ATOM      6  C   UNL     1      31.665  -8.759 -22.504  0.00  0.00    +0.003 C 
ATOM      7  C   UNL     1      34.150  -6.673 -24.444  0.00  0.00    +0.004 C 
ATOM      8  C   UNL     1      32.291 -10.166 -22.558  0.00  0.00    +0.000 C 
ATOM      9  C   UNL     1      33.831 -11.796 -23.856  0.00  0.00    +0.004 C 
ATOM     10  C   UNL     1      33.303  -5.538 -23.832  0.00  0.00    +0.039 C 
ATOM     11  C   UNL     1      34.826  -9.531 -25.508  0.00  0.00    +0.000 C 
ATOM     12  C   UNL     1      35.486 -10.910 -25.563  0.00  0.00    +0.004 C 
ATOM     13  C   UNL     1      34.467 -11.966 -25.226  0.00  0.00    +0.023 C 
ATOM     14  C   UNL     1      32.998 -13.028 -23.469  0.00  0.00    +0.007 C 
ATOM     15  C   UNL     1      32.117 -13.514 -24.605  0.00  0.00    +0.048 C 
ATOM     16  C   UNL     1      34.110 -12.907 -26.113  0.00  0.00    -0.010 C 
ATOM     17  C   UNL     1      32.967 -13.807 -25.820  0.00  0.00    +0.081 C 
ENDROOT
BRANCH   5  18
ATOM     18  O   UNL     1      31.862  -5.511 -21.846  0.00  0.00    -0.375 OA
ATOM     19  H   UNL     1      31.257  -4.778 -22.040  0.00  0.00    +0.211 HD
ENDBRANCH   5  18
BRANCH   1  20
ATOM     20  C   UNL     1      33.706  -7.620 -21.593  0.00  0.00    +0.003 C 
ATOM     21  C   UNL     1      32.973  -7.760 -20.285  0.00  0.00    +0.000 C 
ENDBRANCH   1  20
BRANCH   5  22
ATOM     22  C   UNL     1      30.919  -6.204 -23.862  0.00  0.00    -0.053 C 
ATOM     23  C   UNL     1      29.921  -6.195 -24.527  0.00  0.00    -0.012 C 
ENDBRANCH   5  22
BRANCH  17  24
ATOM     24  N   UNL     1      32.640 -14.795 -26.587  0.00  0.00    -0.139 NA
BRANCH  24  25
ATOM     25  O   UNL     1      33.485 -15.868 -26.303  0.00  0.00    -0.266 OA
ATOM     26  H   UNL     1      33.163 -16.603 -25.820  0.00  0.00    +0.247 HD
ENDBRANCH  24  25
ENDBRANCH  17  24
TORSDOF 5
ENDMDL
