MODEL 1
REMARK VINA RESULT:      -6.9      0.000      0.000
REMARK  Name = 5479
REMARK  5 active torsions:
REMARK  status: ('A' for Active; 'I' for Inactive)
REMARK    1  A    between atoms: N_1  and  C_10
REMARK    2  A    between atoms: C_4  and  N_9
REMARK    3  A    between atoms: C_10  and  C_11
REMARK    4  A    between atoms: C_11  and  S_12
REMARK    5  A    between atoms: S_12  and  C_15
REMARK                            x       y       z     vdW  Elec       q    Type
REMARK                         _______ _______ _______ _____ _____    ______ ____
ROOT
ATOM      1  N   UNL     1      34.004 -15.255 -24.473  0.00  0.00    -0.254 N 
ATOM      2  N   UNL     1      33.191 -15.680 -26.481  0.00  0.00    -0.230 NA
ATOM      3  C   UNL     1      33.929 -16.145 -25.497  0.00  0.00    +0.114 C 
ATOM      4  C   UNL     1      33.278 -14.156 -24.806  0.00  0.00    +0.218 C 
ATOM      5  C   UNL     1      32.782 -14.441 -26.057  0.00  0.00    +0.140 C 
ATOM      6  C   UNL     1      34.606 -17.457 -25.465  0.00  0.00    +0.069 C 
ENDROOT
BRANCH   4   9
ATOM      7  O   UNL     1      33.869 -12.023 -24.168  0.00  0.00    -0.125 OA
ATOM      8  O   UNL     1      32.257 -13.040 -23.070  0.00  0.00    -0.125 OA
ATOM      9  N   UNL     1      33.129 -13.032 -23.985  0.00  0.00    +0.074 N 
ENDBRANCH   4   9
BRANCH   1  10
ATOM     10  C   UNL     1      34.739 -15.453 -23.227  0.00  0.00    +0.124 C 
BRANCH  10  11
ATOM     11  C   UNL     1      34.003 -16.325 -22.220  0.00  0.00    +0.173 C 
BRANCH  11  12
ATOM     12  S   UNL     1      35.048 -17.534 -21.471  0.00  0.00    -0.008 S 
ATOM     13  O   UNL     1      36.027 -17.964 -22.456  0.00  0.00    -0.173 OA
ATOM     14  O   UNL     1      35.475 -17.028 -20.177  0.00  0.00    -0.173 OA
BRANCH  12  15
ATOM     15  C   UNL     1      33.950 -18.901 -21.175  0.00  0.00    +0.151 C 
ATOM     16  C   UNL     1      34.687 -20.092 -20.606  0.00  0.00    +0.027 C 
ENDBRANCH  12  15
ENDBRANCH  11  12
ENDBRANCH  10  11
ENDBRANCH   1  10
TORSDOF 5
ENDMDL
MODEL 2
REMARK VINA RESULT:      -6.8     12.242     14.096
REMARK  Name = 5479
REMARK  5 active torsions:
REMARK  status: ('A' for Active; 'I' for Inactive)
REMARK    1  A    between atoms: N_1  and  C_10
REMARK    2  A    between atoms: C_4  and  N_9
REMARK    3  A    between atoms: C_10  and  C_11
REMARK    4  A    between atoms: C_11  and  S_12
REMARK    5  A    between atoms: S_12  and  C_15
REMARK                            x       y       z     vdW  Elec       q    Type
REMARK                         _______ _______ _______ _____ _____    ______ ____
ROOT
ATOM      1  N   UNL     1      36.618 -24.766 -13.468  0.00  0.00    -0.254 N 
ATOM      2  N   UNL     1      38.059 -26.407 -13.802  0.00  0.00    -0.230 NA
ATOM      3  C   UNL     1      36.962 -25.830 -14.241  0.00  0.00    +0.114 C 
ATOM      4  C   UNL     1      37.539 -24.643 -12.477  0.00  0.00    +0.218 C 
ATOM      5  C   UNL     1      38.425 -25.671 -12.703  0.00  0.00    +0.140 C 
ATOM      6  C   UNL     1      36.172 -26.250 -15.416  0.00  0.00    +0.069 C 
ENDROOT
BRANCH   4   9
ATOM      7  O   UNL     1      36.757 -23.799 -10.482  0.00  0.00    -0.125 OA
ATOM      8  O   UNL     1      38.223 -22.618 -11.620  0.00  0.00    -0.125 OA
ATOM      9  N   UNL     1      37.505 -23.651 -11.490  0.00  0.00    +0.074 N 
ENDBRANCH   4   9
BRANCH   1  10
ATOM     10  C   UNL     1      35.459 -23.905 -13.675  0.00  0.00    +0.124 C 
BRANCH  10  11
ATOM     11  C   UNL     1      34.231 -24.339 -12.887  0.00  0.00    +0.173 C 
BRANCH  11  12
ATOM     12  S   UNL     1      32.730 -24.127 -13.791  0.00  0.00    -0.008 S 
ATOM     13  O   UNL     1      32.129 -25.435 -13.990  0.00  0.00    -0.173 OA
ATOM     14  O   UNL     1      31.973 -23.052 -13.171  0.00  0.00    -0.173 OA
BRANCH  12  15
ATOM     15  C   UNL     1      33.284 -23.545 -15.378  0.00  0.00    +0.151 C 
ATOM     16  C   UNL     1      32.123 -23.278 -16.308  0.00  0.00    +0.027 C 
ENDBRANCH  12  15
ENDBRANCH  11  12
ENDBRANCH  10  11
ENDBRANCH   1  10
TORSDOF 5
ENDMDL
MODEL 3
REMARK VINA RESULT:      -6.6     12.349     13.591
REMARK  Name = 5479
REMARK  5 active torsions:
REMARK  status: ('A' for Active; 'I' for Inactive)
REMARK    1  A    between atoms: N_1  and  C_10
REMARK    2  A    between atoms: C_4  and  N_9
REMARK    3  A    between atoms: C_10  and  C_11
REMARK    4  A    between atoms: C_11  and  S_12
REMARK    5  A    between atoms: S_12  and  C_15
REMARK                            x       y       z     vdW  Elec       q    Type
REMARK                         _______ _______ _______ _____ _____    ______ ____
ROOT
ATOM      1  N   UNL     1      36.090 -23.402 -13.852  0.00  0.00    -0.254 N 
ATOM      2  N   UNL     1      33.957 -23.957 -13.720  0.00  0.00    -0.230 NA
ATOM      3  C   UNL     1      34.925 -23.586 -14.528  0.00  0.00    +0.114 C 
ATOM      4  C   UNL     1      35.869 -23.667 -12.538  0.00  0.00    +0.218 C 
ATOM      5  C   UNL     1      34.538 -24.010 -12.478  0.00  0.00    +0.140 C 
ATOM      6  C   UNL     1      34.809 -23.384 -15.986  0.00  0.00    +0.069 C 
ENDROOT
BRANCH   4   9
ATOM      7  O   UNL     1      37.307 -24.642 -11.026  0.00  0.00    -0.125 OA
ATOM      8  O   UNL     1      37.264 -22.447 -11.172  0.00  0.00    -0.125 OA
ATOM      9  N   UNL     1      36.849 -23.582 -11.542  0.00  0.00    +0.074 N 
ENDBRANCH   4   9
BRANCH   1  10
ATOM     10  C   UNL     1      37.360 -22.993 -14.443  0.00  0.00    +0.124 C 
BRANCH  10  11
ATOM     11  C   UNL     1      37.963 -24.037 -15.372  0.00  0.00    +0.173 C 
BRANCH  11  12
ATOM     12  S   UNL     1      38.951 -25.223 -14.515  0.00  0.00    -0.008 S 
ATOM     13  O   UNL     1      39.879 -25.815 -15.465  0.00  0.00    -0.173 OA
ATOM     14  O   UNL     1      39.437 -24.611 -13.291  0.00  0.00    -0.173 OA
BRANCH  12  15
ATOM     15  C   UNL     1      37.779 -26.480 -14.057  0.00  0.00    +0.151 C 
ATOM     16  C   UNL     1      36.794 -26.753 -15.171  0.00  0.00    +0.027 C 
ENDBRANCH  12  15
ENDBRANCH  11  12
ENDBRANCH  10  11
ENDBRANCH   1  10
TORSDOF 5
ENDMDL
MODEL 4
REMARK VINA RESULT:      -6.6      2.139      2.434
REMARK  Name = 5479
REMARK  5 active torsions:
REMARK  status: ('A' for Active; 'I' for Inactive)
REMARK    1  A    between atoms: N_1  and  C_10
REMARK    2  A    between atoms: C_4  and  N_9
REMARK    3  A    between atoms: C_10  and  C_11
REMARK    4  A    between atoms: C_11  and  S_12
REMARK    5  A    between atoms: S_12  and  C_15
REMARK                            x       y       z     vdW  Elec       q    Type
REMARK                         _______ _______ _______ _____ _____    ______ ____
ROOT
ATOM      1  N   UNL     1      34.415 -15.972 -22.931  0.00  0.00    -0.254 N 
ATOM      2  N   UNL     1      33.424 -14.947 -24.618  0.00  0.00    -0.230 NA
ATOM      3  C   UNL     1      34.169 -15.973 -24.268  0.00  0.00    +0.114 C 
ATOM      4  C   UNL     1      33.798 -14.892 -22.383  0.00  0.00    +0.218 C 
ATOM      5  C   UNL     1      33.189 -14.270 -23.448  0.00  0.00    +0.140 C 
ATOM      6  C   UNL     1      34.693 -17.014 -25.174  0.00  0.00    +0.069 C 
ENDROOT
BRANCH   4   9
ATOM      7  O   UNL     1      34.950 -14.401 -20.450  0.00  0.00    -0.125 OA
ATOM      8  O   UNL     1      32.752 -14.457 -20.379  0.00  0.00    -0.125 OA
ATOM      9  N   UNL     1      33.835 -14.572 -21.021  0.00  0.00    +0.074 N 
ENDBRANCH   4   9
BRANCH   1  10
ATOM     10  C   UNL     1      35.204 -16.966 -22.211  0.00  0.00    +0.124 C 
BRANCH  10  11
ATOM     11  C   UNL     1      34.405 -17.744 -21.176  0.00  0.00    +0.173 C 
BRANCH  11  12
ATOM     12  S   UNL     1      34.674 -19.486 -21.273  0.00  0.00    -0.008 S 
ATOM     13  O   UNL     1      34.824 -19.846 -22.673  0.00  0.00    -0.173 OA
ATOM     14  O   UNL     1      35.697 -19.842 -20.304  0.00  0.00    -0.173 OA
BRANCH  12  15
ATOM     15  C   UNL     1      33.135 -20.172 -20.704  0.00  0.00    +0.151 C 
ATOM     16  C   UNL     1      33.356 -21.227 -19.645  0.00  0.00    +0.027 C 
ENDBRANCH  12  15
ENDBRANCH  11  12
ENDBRANCH  10  11
ENDBRANCH   1  10
TORSDOF 5
ENDMDL
MODEL 5
REMARK VINA RESULT:      -6.5     11.723     13.093
REMARK  Name = 5479
REMARK  5 active torsions:
REMARK  status: ('A' for Active; 'I' for Inactive)
REMARK    1  A    between atoms: N_1  and  C_10
REMARK    2  A    between atoms: C_4  and  N_9
REMARK    3  A    between atoms: C_10  and  C_11
REMARK    4  A    between atoms: C_11  and  S_12
REMARK    5  A    between atoms: S_12  and  C_15
REMARK                            x       y       z     vdW  Elec       q    Type
REMARK                         _______ _______ _______ _____ _____    ______ ____
ROOT
ATOM      1  N   UNL     1      34.075 -24.015 -14.684  0.00  0.00    -0.254 N 
ATOM      2  N   UNL     1      33.860 -23.031 -16.649  0.00  0.00    -0.230 NA
ATOM      3  C   UNL     1      34.715 -23.475 -15.754  0.00  0.00    +0.114 C 
ATOM      4  C   UNL     1      32.736 -23.918 -14.892  0.00  0.00    +0.218 C 
ATOM      5  C   UNL     1      32.624 -23.304 -16.118  0.00  0.00    +0.140 C 
ATOM      6  C   UNL     1      36.187 -23.417 -15.858  0.00  0.00    +0.069 C 
ENDROOT
BRANCH   4   9
ATOM      7  O   UNL     1      31.261 -25.523 -14.149  0.00  0.00    -0.125 OA
ATOM      8  O   UNL     1      31.403 -23.631 -13.036  0.00  0.00    -0.125 OA
ATOM      9  N   UNL     1      31.765 -24.374 -13.993  0.00  0.00    +0.074 N 
ENDBRANCH   4   9
BRANCH   1  10
ATOM     10  C   UNL     1      34.721 -24.600 -13.513  0.00  0.00    +0.124 C 
BRANCH  10  11
ATOM     11  C   UNL     1      35.066 -23.581 -12.437  0.00  0.00    +0.173 C 
BRANCH  11  12
ATOM     12  S   UNL     1      36.184 -24.218 -11.227  0.00  0.00    -0.008 S 
ATOM     13  O   UNL     1      37.059 -23.138 -10.803  0.00  0.00    -0.173 OA
ATOM     14  O   UNL     1      35.417 -24.975 -10.253  0.00  0.00    -0.173 OA
BRANCH  12  15
ATOM     15  C   UNL     1      37.170 -25.376 -12.149  0.00  0.00    +0.151 C 
ATOM     16  C   UNL     1      38.411 -24.723 -12.713  0.00  0.00    +0.027 C 
ENDBRANCH  12  15
ENDBRANCH  11  12
ENDBRANCH  10  11
ENDBRANCH   1  10
TORSDOF 5
ENDMDL
MODEL 6
REMARK VINA RESULT:      -6.5      2.226      3.053
REMARK  Name = 5479
REMARK  5 active torsions:
REMARK  status: ('A' for Active; 'I' for Inactive)
REMARK    1  A    between atoms: N_1  and  C_10
REMARK    2  A    between atoms: C_4  and  N_9
REMARK    3  A    between atoms: C_10  and  C_11
REMARK    4  A    between atoms: C_11  and  S_12
REMARK    5  A    between atoms: S_12  and  C_15
REMARK                            x       y       z     vdW  Elec       q    Type
REMARK                         _______ _______ _______ _____ _____    ______ ____
ROOT
ATOM      1  N   UNL     1      34.326 -15.471 -23.174  0.00  0.00    -0.254 N 
ATOM      2  N   UNL     1      33.624 -13.384 -23.002  0.00  0.00    -0.230 NA
ATOM      3  C   UNL     1      34.153 -14.400 -22.355  0.00  0.00    +0.114 C 
ATOM      4  C   UNL     1      33.889 -15.135 -24.416  0.00  0.00    +0.218 C 
ATOM      5  C   UNL     1      33.458 -13.836 -24.287  0.00  0.00    +0.140 C 
ATOM      6  C   UNL     1      34.526 -14.420 -20.927  0.00  0.00    +0.069 C 
ENDROOT
BRANCH   4   9
ATOM      7  O   UNL     1      32.908 -16.068 -26.280  0.00  0.00    -0.125 OA
ATOM      8  O   UNL     1      34.948 -16.692 -25.741  0.00  0.00    -0.125 OA
ATOM      9  N   UNL     1      33.916 -15.997 -25.519  0.00  0.00    +0.074 N 
ENDBRANCH   4   9
BRANCH   1  10
ATOM     10  C   UNL     1      34.888 -16.759 -22.781  0.00  0.00    +0.124 C 
BRANCH  10  11
ATOM     11  C   UNL     1      34.078 -17.474 -21.709  0.00  0.00    +0.173 C 
BRANCH  11  12
ATOM     12  S   UNL     1      34.596 -19.144 -21.463  0.00  0.00    -0.008 S 
ATOM     13  O   UNL     1      34.835 -19.744 -22.766  0.00  0.00    -0.173 OA
ATOM     14  O   UNL     1      35.631 -19.153 -20.443  0.00  0.00    -0.173 OA
BRANCH  12  15
ATOM     15  C   UNL     1      33.155 -19.923 -20.771  0.00  0.00    +0.151 C 
ATOM     16  C   UNL     1      33.529 -21.067 -19.855  0.00  0.00    +0.027 C 
ENDBRANCH  12  15
ENDBRANCH  11  12
ENDBRANCH  10  11
ENDBRANCH   1  10
TORSDOF 5
ENDMDL
MODEL 7
REMARK VINA RESULT:      -6.5     11.266     13.183
REMARK  Name = 5479
REMARK  5 active torsions:
REMARK  status: ('A' for Active; 'I' for Inactive)
REMARK    1  A    between atoms: N_1  and  C_10
REMARK    2  A    between atoms: C_4  and  N_9
REMARK    3  A    between atoms: C_10  and  C_11
REMARK    4  A    between atoms: C_11  and  S_12
REMARK    5  A    between atoms: S_12  and  C_15
REMARK                            x       y       z     vdW  Elec       q    Type
REMARK                         _______ _______ _______ _____ _____    ______ ____
ROOT
ATOM      1  N   UNL     1      33.933 -23.994 -14.378  0.00  0.00    -0.254 N 
ATOM      2  N   UNL     1      32.624 -23.177 -15.958  0.00  0.00    -0.230 NA
ATOM      3  C   UNL     1      32.715 -23.472 -14.680  0.00  0.00    +0.114 C 
ATOM      4  C   UNL     1      34.673 -24.040 -15.516  0.00  0.00    +0.218 C 
ATOM      5  C   UNL     1      33.842 -23.528 -16.485  0.00  0.00    +0.140 C 
ATOM      6  C   UNL     1      31.657 -23.280 -13.668  0.00  0.00    +0.069 C 
ENDROOT
BRANCH   4   9
ATOM      7  O   UNL     1      36.201 -25.763 -15.484  0.00  0.00    -0.125 OA
ATOM      8  O   UNL     1      36.940 -23.706 -15.739  0.00  0.00    -0.125 OA
ATOM      9  N   UNL     1      35.986 -24.521 -15.582  0.00  0.00    +0.074 N 
ENDBRANCH   4   9
BRANCH   1  10
ATOM     10  C   UNL     1      34.367 -24.427 -13.053  0.00  0.00    +0.124 C 
BRANCH  10  11
ATOM     11  C   UNL     1      35.451 -23.545 -12.451  0.00  0.00    +0.173 C 
BRANCH  11  12
ATOM     12  S   UNL     1      36.559 -24.440 -11.409  0.00  0.00    -0.008 S 
ATOM     13  O   UNL     1      36.413 -23.940 -10.052  0.00  0.00    -0.173 OA
ATOM     14  O   UNL     1      36.408 -25.857 -11.695  0.00  0.00    -0.173 OA
BRANCH  12  15
ATOM     15  C   UNL     1      38.164 -23.944 -11.993  0.00  0.00    +0.151 C 
ATOM     16  C   UNL     1      38.708 -24.916 -13.015  0.00  0.00    +0.027 C 
ENDBRANCH  12  15
ENDBRANCH  11  12
ENDBRANCH  10  11
ENDBRANCH   1  10
TORSDOF 5
ENDMDL
MODEL 8
REMARK VINA RESULT:      -6.5     10.130     11.817
REMARK  Name = 5479
REMARK  5 active torsions:
REMARK  status: ('A' for Active; 'I' for Inactive)
REMARK    1  A    between atoms: N_1  and  C_10
REMARK    2  A    between atoms: C_4  and  N_9
REMARK    3  A    between atoms: C_10  and  C_11
REMARK    4  A    between atoms: C_11  and  S_12
REMARK    5  A    between atoms: S_12  and  C_15
REMARK                            x       y       z     vdW  Elec       q    Type
REMARK                         _______ _______ _______ _____ _____    ______ ____
ROOT
ATOM      1  N   UNL     1      33.177 -23.515 -16.107  0.00  0.00    -0.254 N 
ATOM      2  N   UNL     1      31.547 -22.656 -17.324  0.00  0.00    -0.230 NA
ATOM      3  C   UNL     1      32.832 -22.932 -17.285  0.00  0.00    +0.114 C 
ATOM      4  C   UNL     1      32.060 -23.625 -15.340  0.00  0.00    +0.218 C 
ATOM      5  C   UNL     1      31.060 -23.086 -16.116  0.00  0.00    +0.140 C 
ATOM      6  C   UNL     1      33.810 -22.661 -18.358  0.00  0.00    +0.069 C 
ENDROOT
BRANCH   4   9
ATOM      7  O   UNL     1      31.801 -25.416 -13.916  0.00  0.00    -0.125 OA
ATOM      8  O   UNL     1      32.259 -23.444 -13.054  0.00  0.00    -0.125 OA
ATOM      9  N   UNL     1      32.039 -24.182 -14.057  0.00  0.00    +0.074 N 
ENDBRANCH   4   9
BRANCH   1  10
ATOM     10  C   UNL     1      34.520 -23.949 -15.735  0.00  0.00    +0.124 C 
BRANCH  10  11
ATOM     11  C   UNL     1      35.326 -22.879 -15.012  0.00  0.00    +0.173 C 
BRANCH  11  12
ATOM     12  S   UNL     1      36.750 -23.531 -14.197  0.00  0.00    -0.008 S 
ATOM     13  O   UNL     1      37.923 -23.186 -14.984  0.00  0.00    -0.173 OA
ATOM     14  O   UNL     1      36.671 -23.176 -12.791  0.00  0.00    -0.173 OA
BRANCH  12  15
ATOM     15  C   UNL     1      36.523 -25.291 -14.318  0.00  0.00    +0.151 C 
ATOM     16  C   UNL     1      37.164 -26.014 -13.156  0.00  0.00    +0.027 C 
ENDBRANCH  12  15
ENDBRANCH  11  12
ENDBRANCH  10  11
ENDBRANCH   1  10
TORSDOF 5
ENDMDL
MODEL 9
REMARK VINA RESULT:      -6.4      2.620      4.520
REMARK  Name = 5479
REMARK  5 active torsions:
REMARK  status: ('A' for Active; 'I' for Inactive)
REMARK    1  A    between atoms: N_1  and  C_10
REMARK    2  A    between atoms: C_4  and  N_9
REMARK    3  A    between atoms: C_10  and  C_11
REMARK    4  A    between atoms: C_11  and  S_12
REMARK    5  A    between atoms: S_12  and  C_15
REMARK                            x       y       z     vdW  Elec       q    Type
REMARK                         _______ _______ _______ _____ _____    ______ ____
ROOT
ATOM      1  N   UNL     1      34.596 -16.740 -23.856  0.00  0.00    -0.254 N 
ATOM      2  N   UNL     1      34.093 -18.094 -25.526  0.00  0.00    -0.230 NA
ATOM      3  C   UNL     1      34.110 -16.843 -25.121  0.00  0.00    +0.114 C 
ATOM      4  C   UNL     1      34.913 -17.986 -23.416  0.00  0.00    +0.218 C 
ATOM      5  C   UNL     1      34.592 -18.812 -24.469  0.00  0.00    +0.140 C 
ATOM      6  C   UNL     1      33.668 -15.671 -25.903  0.00  0.00    +0.069 C 
ENDROOT
BRANCH   4   9
ATOM      7  O   UNL     1      34.665 -18.415 -21.167  0.00  0.00    -0.125 OA
ATOM      8  O   UNL     1      36.697 -18.359 -22.009  0.00  0.00    -0.125 OA
ATOM      9  N   UNL     1      35.444 -18.263 -22.151  0.00  0.00    +0.074 N 
ENDBRANCH   4   9
BRANCH   1  10
ATOM     10  C   UNL     1      34.753 -15.499 -23.104  0.00  0.00    +0.124 C 
BRANCH  10  11
ATOM     11  C   UNL     1      33.436 -14.917 -22.611  0.00  0.00    +0.173 C 
BRANCH  11  12
ATOM     12  S   UNL     1      33.234 -15.069 -20.863  0.00  0.00    -0.008 S 
ATOM     13  O   UNL     1      32.248 -16.105 -20.607  0.00  0.00    -0.173 OA
ATOM     14  O   UNL     1      34.553 -15.137 -20.258  0.00  0.00    -0.173 OA
BRANCH  12  15
ATOM     15  C   UNL     1      32.510 -13.513 -20.397  0.00  0.00    +0.151 C 
ATOM     16  C   UNL     1      32.009 -12.750 -21.603  0.00  0.00    +0.027 C 
ENDBRANCH  12  15
ENDBRANCH  11  12
ENDBRANCH  10  11
ENDBRANCH   1  10
TORSDOF 5
ENDMDL
