MODEL 1
REMARK VINA RESULT:      -7.5      0.000      0.000
REMARK  Name = 4914
REMARK  8 active torsions:
REMARK  status: ('A' for Active; 'I' for Inactive)
REMARK    1  A    between atoms: C_2  and  C_3
REMARK    2  A    between atoms: C_2  and  O_12
REMARK    3  A    between atoms: C_6  and  N_9
REMARK    4  A    between atoms: O_12  and  C_13
REMARK    5  A    between atoms: C_13  and  C_14
REMARK    6  A    between atoms: C_14  and  N_15
REMARK    7  A    between atoms: N_15  and  C_17
REMARK    8  A    between atoms: N_15  and  C_19
REMARK                            x       y       z     vdW  Elec       q    Type
REMARK                         _______ _______ _______ _____ _____    ______ ____
ROOT
ATOM      1  O   UNL     1      36.963 -18.578 -21.803  0.00  0.00    -0.245 OA
ATOM      2  C   UNL     1      35.750 -18.699 -21.870  0.00  0.00    +0.341 C 
ENDROOT
BRANCH   2   3
ATOM      3  C   UNL     1      34.978 -19.649 -21.029  0.00  0.00    +0.076 C 
ATOM      4  C   UNL     1      33.603 -19.535 -20.984  0.00  0.00    +0.008 C 
ATOM      5  C   UNL     1      35.658 -20.618 -20.320  0.00  0.00    +0.008 C 
ATOM      6  C   UNL     1      33.542 -21.416 -19.470  0.00  0.00    +0.042 C 
ATOM      7  C   UNL     1      32.878 -20.427 -20.196  0.00  0.00    +0.014 C 
ATOM      8  C   UNL     1      34.933 -21.511 -19.532  0.00  0.00    +0.014 C 
BRANCH   6   9
ATOM      9  N   UNL     1      32.809 -22.320 -18.674  0.00  0.00    -0.357 N 
ATOM     10  H   UNL     1      31.916 -22.071 -18.342  0.00  0.00    +0.142 HD
ATOM     11  H   UNL     1      33.191 -23.200 -18.449  0.00  0.00    +0.142 HD
ENDBRANCH   6   9
ENDBRANCH   2   3
BRANCH   2  12
ATOM     12  O   UNL     1      34.922 -18.009 -22.702  0.00  0.00    -0.448 OA
BRANCH  12  13
ATOM     13  C   UNL     1      35.196 -16.622 -22.847  0.00  0.00    +0.186 C 
BRANCH  13  14
ATOM     14  C   UNL     1      34.734 -15.898 -21.594  0.00  0.00    -0.029 C 
BRANCH  14  15
ATOM     15  N   UNL     1      34.324 -14.529 -21.910  0.00  0.00    +0.389 N 
ATOM     16  H   UNL     1      35.034 -13.890 -21.553  0.00  0.00    -0.080 HD
BRANCH  15  17
ATOM     17  C   UNL     1      33.050 -14.216 -21.265  0.00  0.00    -0.077 C 
ATOM     18  C   UNL     1      32.451 -15.447 -20.606  0.00  0.00    -0.025 C 
ENDBRANCH  15  17
BRANCH  15  19
ATOM     19  C   UNL     1      34.223 -14.347 -23.357  0.00  0.00    -0.077 C 
ATOM     20  C   UNL     1      33.618 -12.996 -23.700  0.00  0.00    -0.025 C 
ENDBRANCH  15  19
ENDBRANCH  14  15
ENDBRANCH  13  14
ENDBRANCH  12  13
ENDBRANCH   2  12
TORSDOF 8
ENDMDL
MODEL 2
REMARK VINA RESULT:      -7.5      0.476      2.031
REMARK  Name = 4914
REMARK  8 active torsions:
REMARK  status: ('A' for Active; 'I' for Inactive)
REMARK    1  A    between atoms: C_2  and  C_3
REMARK    2  A    between atoms: C_2  and  O_12
REMARK    3  A    between atoms: C_6  and  N_9
REMARK    4  A    between atoms: O_12  and  C_13
REMARK    5  A    between atoms: C_13  and  C_14
REMARK    6  A    between atoms: C_14  and  N_15
REMARK    7  A    between atoms: N_15  and  C_17
REMARK    8  A    between atoms: N_15  and  C_19
REMARK                            x       y       z     vdW  Elec       q    Type
REMARK                         _______ _______ _______ _____ _____    ______ ____
ROOT
ATOM      1  O   UNL     1      36.960 -18.520 -21.766  0.00  0.00    -0.245 OA
ATOM      2  C   UNL     1      35.760 -18.708 -21.893  0.00  0.00    +0.341 C 
ENDROOT
BRANCH   2   3
ATOM      3  C   UNL     1      34.991 -19.659 -21.051  0.00  0.00    +0.076 C 
ATOM      4  C   UNL     1      35.673 -20.639 -20.359  0.00  0.00    +0.008 C 
ATOM      5  C   UNL     1      33.618 -19.533 -20.986  0.00  0.00    +0.008 C 
ATOM      6  C   UNL     1      33.563 -21.425 -19.484  0.00  0.00    +0.042 C 
ATOM      7  C   UNL     1      34.951 -21.532 -19.568  0.00  0.00    +0.014 C 
ATOM      8  C   UNL     1      32.896 -20.426 -20.193  0.00  0.00    +0.014 C 
BRANCH   6   9
ATOM      9  N   UNL     1      32.832 -22.326 -18.682  0.00  0.00    -0.357 N 
ATOM     10  H   UNL     1      32.285 -23.028 -19.104  0.00  0.00    +0.142 HD
ATOM     11  H   UNL     1      32.869 -22.253 -17.701  0.00  0.00    +0.142 HD
ENDBRANCH   6   9
ENDBRANCH   2   3
BRANCH   2  12
ATOM     12  O   UNL     1      34.947 -18.100 -22.799  0.00  0.00    -0.448 OA
BRANCH  12  13
ATOM     13  C   UNL     1      35.213 -16.727 -23.056  0.00  0.00    +0.186 C 
BRANCH  13  14
ATOM     14  C   UNL     1      34.418 -15.882 -22.075  0.00  0.00    -0.029 C 
BRANCH  14  15
ATOM     15  N   UNL     1      33.364 -15.140 -22.767  0.00  0.00    +0.389 N 
ATOM     16  H   UNL     1      32.786 -15.803 -23.281  0.00  0.00    -0.080 HD
BRANCH  15  17
ATOM     17  C   UNL     1      33.948 -14.196 -23.720  0.00  0.00    -0.077 C 
ATOM     18  C   UNL     1      33.244 -12.851 -23.662  0.00  0.00    -0.025 C 
ENDBRANCH  15  17
BRANCH  15  19
ATOM     19  C   UNL     1      32.518 -14.436 -21.804  0.00  0.00    -0.077 C 
ATOM     20  C   UNL     1      32.757 -14.941 -20.392  0.00  0.00    -0.025 C 
ENDBRANCH  15  19
ENDBRANCH  14  15
ENDBRANCH  13  14
ENDBRANCH  12  13
ENDBRANCH   2  12
TORSDOF 8
ENDMDL
MODEL 3
REMARK VINA RESULT:      -7.5      0.262      1.201
REMARK  Name = 4914
REMARK  8 active torsions:
REMARK  status: ('A' for Active; 'I' for Inactive)
REMARK    1  A    between atoms: C_2  and  C_3
REMARK    2  A    between atoms: C_2  and  O_12
REMARK    3  A    between atoms: C_6  and  N_9
REMARK    4  A    between atoms: O_12  and  C_13
REMARK    5  A    between atoms: C_13  and  C_14
REMARK    6  A    between atoms: C_14  and  N_15
REMARK    7  A    between atoms: N_15  and  C_17
REMARK    8  A    between atoms: N_15  and  C_19
REMARK                            x       y       z     vdW  Elec       q    Type
REMARK                         _______ _______ _______ _____ _____    ______ ____
ROOT
ATOM      1  O   UNL     1      36.976 -18.518 -21.815  0.00  0.00    -0.245 OA
ATOM      2  C   UNL     1      35.764 -18.637 -21.897  0.00  0.00    +0.341 C 
ENDROOT
BRANCH   2   3
ATOM      3  C   UNL     1      34.980 -19.587 -21.067  0.00  0.00    +0.076 C 
ATOM      4  C   UNL     1      35.649 -20.573 -20.370  0.00  0.00    +0.008 C 
ATOM      5  C   UNL     1      33.608 -19.454 -21.016  0.00  0.00    +0.008 C 
ATOM      6  C   UNL     1      33.526 -21.350 -19.522  0.00  0.00    +0.042 C 
ATOM      7  C   UNL     1      34.914 -21.464 -19.590  0.00  0.00    +0.014 C 
ATOM      8  C   UNL     1      32.872 -20.345 -20.234  0.00  0.00    +0.014 C 
BRANCH   6   9
ATOM      9  N   UNL     1      32.782 -22.250 -18.730  0.00  0.00    -0.357 N 
ATOM     10  H   UNL     1      32.838 -23.217 -18.901  0.00  0.00    +0.142 HD
ATOM     11  H   UNL     1      32.205 -21.909 -18.008  0.00  0.00    +0.142 HD
ENDBRANCH   6   9
ENDBRANCH   2   3
BRANCH   2  12
ATOM     12  O   UNL     1      34.947 -17.944 -22.738  0.00  0.00    -0.448 OA
BRANCH  12  13
ATOM     13  C   UNL     1      35.243 -16.563 -22.899  0.00  0.00    +0.186 C 
BRANCH  13  14
ATOM     14  C   UNL     1      34.659 -15.797 -21.724  0.00  0.00    -0.029 C 
BRANCH  14  15
ATOM     15  N   UNL     1      33.991 -14.578 -22.182  0.00  0.00    +0.389 N 
ATOM     16  H   UNL     1      34.573 -13.779 -21.935  0.00  0.00    -0.080 HD
BRANCH  15  17
ATOM     17  C   UNL     1      32.693 -14.429 -21.525  0.00  0.00    -0.077 C 
ATOM     18  C   UNL     1      32.354 -15.656 -20.695  0.00  0.00    -0.025 C 
ENDBRANCH  15  17
BRANCH  15  19
ATOM     19  C   UNL     1      33.829 -14.601 -23.635  0.00  0.00    -0.077 C 
ATOM     20  C   UNL     1      33.577 -13.205 -24.181  0.00  0.00    -0.025 C 
ENDBRANCH  15  19
ENDBRANCH  14  15
ENDBRANCH  13  14
ENDBRANCH  12  13
ENDBRANCH   2  12
TORSDOF 8
ENDMDL
MODEL 4
REMARK VINA RESULT:      -7.5      0.460      1.653
REMARK  Name = 4914
REMARK  8 active torsions:
REMARK  status: ('A' for Active; 'I' for Inactive)
REMARK    1  A    between atoms: C_2  and  C_3
REMARK    2  A    between atoms: C_2  and  O_12
REMARK    3  A    between atoms: C_6  and  N_9
REMARK    4  A    between atoms: O_12  and  C_13
REMARK    5  A    between atoms: C_13  and  C_14
REMARK    6  A    between atoms: C_14  and  N_15
REMARK    7  A    between atoms: N_15  and  C_17
REMARK    8  A    between atoms: N_15  and  C_19
REMARK                            x       y       z     vdW  Elec       q    Type
REMARK                         _______ _______ _______ _____ _____    ______ ____
ROOT
ATOM      1  O   UNL     1      36.959 -18.592 -21.706  0.00  0.00    -0.245 OA
ATOM      2  C   UNL     1      35.761 -18.785 -21.837  0.00  0.00    +0.341 C 
ENDROOT
BRANCH   2   3
ATOM      3  C   UNL     1      34.989 -19.727 -20.987  0.00  0.00    +0.076 C 
ATOM      4  C   UNL     1      33.616 -19.603 -20.931  0.00  0.00    +0.008 C 
ATOM      5  C   UNL     1      35.669 -20.698 -20.281  0.00  0.00    +0.008 C 
ATOM      6  C   UNL     1      33.554 -21.478 -19.410  0.00  0.00    +0.042 C 
ATOM      7  C   UNL     1      32.891 -20.487 -20.134  0.00  0.00    +0.014 C 
ATOM      8  C   UNL     1      34.943 -21.584 -19.484  0.00  0.00    +0.014 C 
BRANCH   6   9
ATOM      9  N   UNL     1      32.821 -22.374 -18.605  0.00  0.00    -0.357 N 
ATOM     10  H   UNL     1      32.375 -23.150 -19.015  0.00  0.00    +0.142 HD
ATOM     11  H   UNL     1      32.755 -22.223 -17.634  0.00  0.00    +0.142 HD
ENDBRANCH   6   9
ENDBRANCH   2   3
BRANCH   2  12
ATOM     12  O   UNL     1      34.951 -18.192 -22.757  0.00  0.00    -0.448 OA
BRANCH  12  13
ATOM     13  C   UNL     1      35.179 -16.808 -22.990  0.00  0.00    +0.186 C 
BRANCH  13  14
ATOM     14  C   UNL     1      34.342 -16.002 -22.010  0.00  0.00    -0.029 C 
BRANCH  14  15
ATOM     15  N   UNL     1      33.403 -15.135 -22.723  0.00  0.00    +0.389 N 
ATOM     16  H   UNL     1      32.842 -15.712 -23.348  0.00  0.00    -0.080 HD
BRANCH  15  17
ATOM     17  C   UNL     1      34.127 -14.149 -23.524  0.00  0.00    -0.077 C 
ATOM     18  C   UNL     1      33.359 -12.841 -23.610  0.00  0.00    -0.025 C 
ENDBRANCH  15  17
BRANCH  15  19
ATOM     19  C   UNL     1      32.507 -14.468 -21.779  0.00  0.00    -0.077 C 
ATOM     20  C   UNL     1      32.758 -14.940 -20.357  0.00  0.00    -0.025 C 
ENDBRANCH  15  19
ENDBRANCH  14  15
ENDBRANCH  13  14
ENDBRANCH  12  13
ENDBRANCH   2  12
TORSDOF 8
ENDMDL
MODEL 5
REMARK VINA RESULT:      -7.4      4.490      8.454
REMARK  Name = 4914
REMARK  8 active torsions:
REMARK  status: ('A' for Active; 'I' for Inactive)
REMARK    1  A    between atoms: C_2  and  C_3
REMARK    2  A    between atoms: C_2  and  O_12
REMARK    3  A    between atoms: C_6  and  N_9
REMARK    4  A    between atoms: O_12  and  C_13
REMARK    5  A    between atoms: C_13  and  C_14
REMARK    6  A    between atoms: C_14  and  N_15
REMARK    7  A    between atoms: N_15  and  C_17
REMARK    8  A    between atoms: N_15  and  C_19
REMARK                            x       y       z     vdW  Elec       q    Type
REMARK                         _______ _______ _______ _____ _____    ______ ____
ROOT
ATOM      1  O   UNL     1      33.848 -23.978 -18.816  0.00  0.00    -0.245 OA
ATOM      2  C   UNL     1      33.415 -22.837 -18.764  0.00  0.00    +0.341 C 
ENDROOT
BRANCH   2   3
ATOM      3  C   UNL     1      34.026 -21.699 -19.496  0.00  0.00    +0.076 C 
ATOM      4  C   UNL     1      35.401 -21.617 -19.573  0.00  0.00    +0.008 C 
ATOM      5  C   UNL     1      33.200 -20.760 -20.079  0.00  0.00    +0.008 C 
ATOM      6  C   UNL     1      35.163 -19.587 -20.860  0.00  0.00    +0.042 C 
ATOM      7  C   UNL     1      35.975 -20.549 -20.262  0.00  0.00    +0.014 C 
ATOM      8  C   UNL     1      33.774 -19.692 -20.769  0.00  0.00    +0.014 C 
BRANCH   6   9
ATOM      9  N   UNL     1      35.743 -18.508 -21.558  0.00  0.00    -0.357 N 
ATOM     10  H   UNL     1      36.716 -18.362 -21.518  0.00  0.00    +0.142 HD
ATOM     11  H   UNL     1      35.175 -17.900 -22.085  0.00  0.00    +0.142 HD
ENDBRANCH   6   9
ENDBRANCH   2   3
BRANCH   2  12
ATOM     12  O   UNL     1      32.333 -22.425 -18.048  0.00  0.00    -0.448 OA
BRANCH  12  13
ATOM     13  C   UNL     1      32.140 -23.055 -16.788  0.00  0.00    +0.186 C 
BRANCH  13  14
ATOM     14  C   UNL     1      30.679 -22.918 -16.391  0.00  0.00    -0.029 C 
BRANCH  14  15
ATOM     15  N   UNL     1      30.220 -24.115 -15.688  0.00  0.00    +0.389 N 
ATOM     16  H   UNL     1      30.762 -24.912 -16.019  0.00  0.00    -0.080 HD
BRANCH  15  17
ATOM     17  C   UNL     1      28.807 -24.364 -15.973  0.00  0.00    -0.077 C 
ATOM     18  C   UNL     1      28.275 -23.387 -17.007  0.00  0.00    -0.025 C 
ENDBRANCH  15  17
BRANCH  15  19
ATOM     19  C   UNL     1      30.434 -23.976 -14.248  0.00  0.00    -0.077 C 
ATOM     20  C   UNL     1      31.413 -25.018 -13.735  0.00  0.00    -0.025 C 
ENDBRANCH  15  19
ENDBRANCH  14  15
ENDBRANCH  13  14
ENDBRANCH  12  13
ENDBRANCH   2  12
TORSDOF 8
ENDMDL
MODEL 6
REMARK VINA RESULT:      -7.3      4.396      8.316
REMARK  Name = 4914
REMARK  8 active torsions:
REMARK  status: ('A' for Active; 'I' for Inactive)
REMARK    1  A    between atoms: C_2  and  C_3
REMARK    2  A    between atoms: C_2  and  O_12
REMARK    3  A    between atoms: C_6  and  N_9
REMARK    4  A    between atoms: O_12  and  C_13
REMARK    5  A    between atoms: C_13  and  C_14
REMARK    6  A    between atoms: C_14  and  N_15
REMARK    7  A    between atoms: N_15  and  C_17
REMARK    8  A    between atoms: N_15  and  C_19
REMARK                            x       y       z     vdW  Elec       q    Type
REMARK                         _______ _______ _______ _____ _____    ______ ____
ROOT
ATOM      1  O   UNL     1      32.221 -22.779 -18.161  0.00  0.00    -0.245 OA
ATOM      2  C   UNL     1      33.424 -22.573 -18.196  0.00  0.00    +0.341 C 
ENDROOT
BRANCH   2   3
ATOM      3  C   UNL     1      34.062 -21.627 -19.145  0.00  0.00    +0.076 C 
ATOM      4  C   UNL     1      33.260 -20.778 -19.881  0.00  0.00    +0.008 C 
ATOM      5  C   UNL     1      35.438 -21.622 -19.261  0.00  0.00    +0.008 C 
ATOM      6  C   UNL     1      35.247 -19.864 -20.907  0.00  0.00    +0.042 C 
ATOM      7  C   UNL     1      33.859 -19.888 -20.772  0.00  0.00    +0.014 C 
ATOM      8  C   UNL     1      36.037 -20.731 -20.151  0.00  0.00    +0.014 C 
BRANCH   6   9
ATOM      9  N   UNL     1      35.853 -18.962 -21.805  0.00  0.00    -0.357 N 
ATOM     10  H   UNL     1      35.506 -18.045 -21.892  0.00  0.00    +0.142 HD
ATOM     11  H   UNL     1      36.624 -19.250 -22.347  0.00  0.00    +0.142 HD
ENDBRANCH   6   9
ENDBRANCH   2   3
BRANCH   2  12
ATOM     12  O   UNL     1      34.359 -23.160 -17.398  0.00  0.00    -0.448 OA
BRANCH  12  13
ATOM     13  C   UNL     1      33.971 -23.397 -16.051  0.00  0.00    +0.186 C 
BRANCH  13  14
ATOM     14  C   UNL     1      35.165 -23.140 -15.146  0.00  0.00    -0.029 C 
BRANCH  14  15
ATOM     15  N   UNL     1      36.254 -24.069 -15.451  0.00  0.00    +0.389 N 
ATOM     16  H   UNL     1      36.108 -24.440 -16.389  0.00  0.00    -0.080 HD
BRANCH  15  17
ATOM     17  C   UNL     1      36.253 -25.184 -14.504  0.00  0.00    -0.077 C 
ATOM     18  C   UNL     1      36.691 -26.475 -15.177  0.00  0.00    -0.025 C 
ENDBRANCH  15  17
BRANCH  15  19
ATOM     19  C   UNL     1      37.540 -23.375 -15.421  0.00  0.00    -0.077 C 
ATOM     20  C   UNL     1      37.505 -22.118 -16.274  0.00  0.00    -0.025 C 
ENDBRANCH  15  19
ENDBRANCH  14  15
ENDBRANCH  13  14
ENDBRANCH  12  13
ENDBRANCH   2  12
TORSDOF 8
ENDMDL
MODEL 7
REMARK VINA RESULT:      -7.2      4.227      7.979
REMARK  Name = 4914
REMARK  8 active torsions:
REMARK  status: ('A' for Active; 'I' for Inactive)
REMARK    1  A    between atoms: C_2  and  C_3
REMARK    2  A    between atoms: C_2  and  O_12
REMARK    3  A    between atoms: C_6  and  N_9
REMARK    4  A    between atoms: O_12  and  C_13
REMARK    5  A    between atoms: C_13  and  C_14
REMARK    6  A    between atoms: C_14  and  N_15
REMARK    7  A    between atoms: N_15  and  C_17
REMARK    8  A    between atoms: N_15  and  C_19
REMARK                            x       y       z     vdW  Elec       q    Type
REMARK                         _______ _______ _______ _____ _____    ______ ____
ROOT
ATOM      1  O   UNL     1      33.977 -23.825 -19.418  0.00  0.00    -0.245 OA
ATOM      2  C   UNL     1      33.651 -22.697 -19.084  0.00  0.00    +0.341 C 
ENDROOT
BRANCH   2   3
ATOM      3  C   UNL     1      34.161 -21.471 -19.749  0.00  0.00    +0.076 C 
ATOM      4  C   UNL     1      33.255 -20.572 -20.275  0.00  0.00    +0.008 C 
ATOM      5  C   UNL     1      35.524 -21.267 -19.820  0.00  0.00    +0.008 C 
ATOM      6  C   UNL     1      35.106 -19.191 -20.982  0.00  0.00    +0.042 C 
ATOM      7  C   UNL     1      33.733 -19.420 -20.898  0.00  0.00    +0.014 C 
ATOM      8  C   UNL     1      36.002 -20.114 -20.443  0.00  0.00    +0.014 C 
BRANCH   6   9
ATOM      9  N   UNL     1      35.590 -18.025 -21.611  0.00  0.00    -0.357 N 
ATOM     10  H   UNL     1      36.079 -17.351 -21.087  0.00  0.00    +0.142 HD
ATOM     11  H   UNL     1      35.437 -17.885 -22.574  0.00  0.00    +0.142 HD
ENDBRANCH   6   9
ENDBRANCH   2   3
BRANCH   2  12
ATOM     12  O   UNL     1      32.793 -22.378 -18.076  0.00  0.00    -0.448 OA
BRANCH  12  13
ATOM     13  C   UNL     1      32.901 -23.157 -16.893  0.00  0.00    +0.186 C 
BRANCH  13  14
ATOM     14  C   UNL     1      31.504 -23.519 -16.415  0.00  0.00    -0.029 C 
BRANCH  14  15
ATOM     15  N   UNL     1      31.186 -22.819 -15.170  0.00  0.00    +0.389 N 
ATOM     16  H   UNL     1      31.564 -21.874 -15.225  0.00  0.00    -0.080 HD
BRANCH  15  17
ATOM     17  C   UNL     1      31.802 -23.500 -14.031  0.00  0.00    -0.077 C 
ATOM     18  C   UNL     1      31.046 -24.769 -13.676  0.00  0.00    -0.025 C 
ENDBRANCH  15  17
BRANCH  15  19
ATOM     19  C   UNL     1      29.738 -22.729 -14.990  0.00  0.00    -0.077 C 
ATOM     20  C   UNL     1      29.024 -22.629 -16.327  0.00  0.00    -0.025 C 
ENDBRANCH  15  19
ENDBRANCH  14  15
ENDBRANCH  13  14
ENDBRANCH  12  13
ENDBRANCH   2  12
TORSDOF 8
ENDMDL
MODEL 8
REMARK VINA RESULT:      -7.0      4.901      9.059
REMARK  Name = 4914
REMARK  8 active torsions:
REMARK  status: ('A' for Active; 'I' for Inactive)
REMARK    1  A    between atoms: C_2  and  C_3
REMARK    2  A    between atoms: C_2  and  O_12
REMARK    3  A    between atoms: C_6  and  N_9
REMARK    4  A    between atoms: O_12  and  C_13
REMARK    5  A    between atoms: C_13  and  C_14
REMARK    6  A    between atoms: C_14  and  N_15
REMARK    7  A    between atoms: N_15  and  C_17
REMARK    8  A    between atoms: N_15  and  C_19
REMARK                            x       y       z     vdW  Elec       q    Type
REMARK                         _______ _______ _______ _____ _____    ______ ____
ROOT
ATOM      1  O   UNL     1      33.645 -23.319 -17.363  0.00  0.00    -0.245 OA
ATOM      2  C   UNL     1      34.599 -22.673 -17.765  0.00  0.00    +0.341 C 
ENDROOT
BRANCH   2   3
ATOM      3  C   UNL     1      34.521 -21.728 -18.908  0.00  0.00    +0.076 C 
ATOM      4  C   UNL     1      35.692 -21.254 -19.463  0.00  0.00    +0.008 C 
ATOM      5  C   UNL     1      33.279 -21.355 -19.381  0.00  0.00    +0.008 C 
ATOM      6  C   UNL     1      34.376 -19.975 -21.033  0.00  0.00    +0.042 C 
ATOM      7  C   UNL     1      35.618 -20.368 -20.537  0.00  0.00    +0.014 C 
ATOM      8  C   UNL     1      33.206 -20.469 -20.456  0.00  0.00    +0.014 C 
BRANCH   6   9
ATOM      9  N   UNL     1      34.301 -19.081 -22.121  0.00  0.00    -0.357 N 
ATOM     10  H   UNL     1      33.651 -18.342 -22.107  0.00  0.00    +0.142 HD
ATOM     11  H   UNL     1      34.899 -19.196 -22.895  0.00  0.00    +0.142 HD
ENDBRANCH   6   9
ENDBRANCH   2   3
BRANCH   2  12
ATOM     12  O   UNL     1      35.861 -22.707 -17.253  0.00  0.00    -0.448 OA
BRANCH  12  13
ATOM     13  C   UNL     1      35.969 -23.054 -15.879  0.00  0.00    +0.186 C 
BRANCH  13  14
ATOM     14  C   UNL     1      37.439 -23.223 -15.531  0.00  0.00    -0.029 C 
BRANCH  14  15
ATOM     15  N   UNL     1      37.757 -24.632 -15.300  0.00  0.00    +0.389 N 
ATOM     16  H   UNL     1      38.175 -25.011 -16.149  0.00  0.00    -0.080 HD
BRANCH  15  17
ATOM     17  C   UNL     1      36.540 -25.388 -15.004  0.00  0.00    -0.077 C 
ATOM     18  C   UNL     1      36.724 -26.865 -15.307  0.00  0.00    -0.025 C 
ENDBRANCH  15  17
BRANCH  15  19
ATOM     19  C   UNL     1      38.721 -24.766 -14.209  0.00  0.00    -0.077 C 
ATOM     20  C   UNL     1      40.013 -25.400 -14.693  0.00  0.00    -0.025 C 
ENDBRANCH  15  19
ENDBRANCH  14  15
ENDBRANCH  13  14
ENDBRANCH  12  13
ENDBRANCH   2  12
TORSDOF 8
ENDMDL
MODEL 9
REMARK VINA RESULT:      -7.0      4.655      8.794
REMARK  Name = 4914
REMARK  8 active torsions:
REMARK  status: ('A' for Active; 'I' for Inactive)
REMARK    1  A    between atoms: C_2  and  C_3
REMARK    2  A    between atoms: C_2  and  O_12
REMARK    3  A    between atoms: C_6  and  N_9
REMARK    4  A    between atoms: O_12  and  C_13
REMARK    5  A    between atoms: C_13  and  C_14
REMARK    6  A    between atoms: C_14  and  N_15
REMARK    7  A    between atoms: N_15  and  C_17
REMARK    8  A    between atoms: N_15  and  C_19
REMARK                            x       y       z     vdW  Elec       q    Type
REMARK                         _______ _______ _______ _____ _____    ______ ____
ROOT
ATOM      1  O   UNL     1      33.506 -23.555 -18.515  0.00  0.00    -0.245 OA
ATOM      2  C   UNL     1      34.348 -22.672 -18.466  0.00  0.00    +0.341 C 
ENDROOT
BRANCH   2   3
ATOM      3  C   UNL     1      34.380 -21.523 -19.407  0.00  0.00    +0.076 C 
ATOM      4  C   UNL     1      35.603 -21.038 -19.826  0.00  0.00    +0.008 C 
ATOM      5  C   UNL     1      33.187 -20.977 -19.835  0.00  0.00    +0.008 C 
ATOM      6  C   UNL     1      34.442 -19.391 -21.157  0.00  0.00    +0.042 C 
ATOM      7  C   UNL     1      35.633 -19.961 -20.710  0.00  0.00    +0.014 C 
ATOM      8  C   UNL     1      33.218 -19.900 -20.721  0.00  0.00    +0.014 C 
BRANCH   6   9
ATOM      9  N   UNL     1      34.473 -18.303 -22.054  0.00  0.00    -0.357 N 
ATOM     10  H   UNL     1      34.186 -18.426 -22.987  0.00  0.00    +0.142 HD
ATOM     11  H   UNL     1      34.781 -17.420 -21.745  0.00  0.00    +0.142 HD
ENDBRANCH   6   9
ENDBRANCH   2   3
BRANCH   2  12
ATOM     12  O   UNL     1      35.370 -22.591 -17.571  0.00  0.00    -0.448 OA
BRANCH  12  13
ATOM     13  C   UNL     1      35.057 -22.945 -16.230  0.00  0.00    +0.186 C 
BRANCH  13  14
ATOM     14  C   UNL     1      36.351 -23.078 -15.444  0.00  0.00    -0.029 C 
BRANCH  14  15
ATOM     15  N   UNL     1      36.270 -24.194 -14.502  0.00  0.00    +0.389 N 
ATOM     16  H   UNL     1      35.361 -24.642 -14.609  0.00  0.00    -0.080 HD
BRANCH  15  17
ATOM     17  C   UNL     1      36.391 -23.711 -13.126  0.00  0.00    -0.077 C 
ATOM     18  C   UNL     1      35.270 -24.252 -12.254  0.00  0.00    -0.025 C 
ENDBRANCH  15  17
BRANCH  15  19
ATOM     19  C   UNL     1      37.310 -25.182 -14.789  0.00  0.00    -0.077 C 
ATOM     20  C   UNL     1      36.704 -26.526 -15.156  0.00  0.00    -0.025 C 
ENDBRANCH  15  19
ENDBRANCH  14  15
ENDBRANCH  13  14
ENDBRANCH  12  13
ENDBRANCH   2  12
TORSDOF 8
ENDMDL
