MODEL 1
REMARK VINA RESULT:      -7.7      0.000      0.000
REMARK  Name = 5282054
REMARK  7 active torsions:
REMARK  status: ('A' for Active; 'I' for Inactive)
REMARK    1  A    between atoms: C_2  and  C_4
REMARK    2  A    between atoms: C_2  and  C_11
REMARK    3  A    between atoms: C_5  and  C_8
REMARK    4  A    between atoms: C_11  and  C_12
REMARK    5  A    between atoms: C_12  and  C_13
REMARK    6  A    between atoms: C_14  and  C_15
REMARK    7  A    between atoms: C_15  and  C_16
REMARK                            x       y       z     vdW  Elec       q    Type
REMARK                         _______ _______ _______ _____ _____    ______ ____
ROOT
ATOM      1  O   UNL     1      36.246 -25.349 -15.311  0.00  0.00    -0.293 OA
ATOM      2  C   UNL     1      37.266 -24.706 -15.098  0.00  0.00    +0.181 C 
ENDROOT
BRANCH   2   4
ATOM      3  O   UNL     1      39.378 -24.585 -13.920  0.00  0.00    -0.336 OA
ATOM      4  C   UNL     1      38.521 -25.411 -14.703  0.00  0.00    +0.208 C 
ATOM      5  C   UNL     1      38.765 -25.703 -13.264  0.00  0.00    +0.225 C 
BRANCH   5   8
ATOM      6  O   UNL     1      36.802 -26.051 -12.039  0.00  0.00    -0.273 OA
ATOM      7  N   UNL     1      38.013 -24.131 -11.625  0.00  0.00    -0.327 N 
ATOM      8  C   UNL     1      37.765 -25.325 -12.258  0.00  0.00    +0.250 C 
ATOM      9  H   UNL     1      37.392 -23.802 -10.936  0.00  0.00    +0.145 HD
ATOM     10  H   UNL     1      38.811 -23.605 -11.860  0.00  0.00    +0.145 HD
ENDBRANCH   5   8
ENDBRANCH   2   4
BRANCH   2  11
ATOM     11  C   UNL     1      37.382 -23.201 -15.232  0.00  0.00    +0.072 C 
BRANCH  11  12
ATOM     12  C   UNL     1      36.225 -22.566 -16.002  0.00  0.00    +0.034 C 
BRANCH  12  13
ATOM     13  C   UNL     1      36.680 -21.916 -17.279  0.00  0.00    -0.030 C 
ATOM     14  C   UNL     1      35.937 -21.862 -18.394  0.00  0.00    -0.026 C 
BRANCH  14  15
ATOM     15  C   UNL     1      36.391 -21.215 -19.669  0.00  0.00    +0.051 C 
BRANCH  15  16
ATOM     16  C   UNL     1      35.271 -20.475 -20.342  0.00  0.00    -0.026 C 
ATOM     17  C   UNL     1      33.975 -20.663 -20.054  0.00  0.00    -0.030 C 
ATOM     18  C   UNL     1      32.861 -19.925 -20.718  0.00  0.00    +0.030 C 
ENDBRANCH  15  16
ENDBRANCH  14  15
ENDBRANCH  12  13
ENDBRANCH  11  12
ENDBRANCH   2  11
TORSDOF 7
ENDMDL
MODEL 2
REMARK VINA RESULT:      -7.5      1.772      2.159
REMARK  Name = 5282054
REMARK  7 active torsions:
REMARK  status: ('A' for Active; 'I' for Inactive)
REMARK    1  A    between atoms: C_2  and  C_4
REMARK    2  A    between atoms: C_2  and  C_11
REMARK    3  A    between atoms: C_5  and  C_8
REMARK    4  A    between atoms: C_11  and  C_12
REMARK    5  A    between atoms: C_12  and  C_13
REMARK    6  A    between atoms: C_14  and  C_15
REMARK    7  A    between atoms: C_15  and  C_16
REMARK                            x       y       z     vdW  Elec       q    Type
REMARK                         _______ _______ _______ _____ _____    ______ ____
ROOT
ATOM      1  O   UNL     1      38.726 -23.850 -15.276  0.00  0.00    -0.293 OA
ATOM      2  C   UNL     1      37.596 -23.797 -14.810  0.00  0.00    +0.181 C 
ENDROOT
BRANCH   2   4
ATOM      3  O   UNL     1      36.023 -24.969 -13.390  0.00  0.00    -0.336 OA
ATOM      4  C   UNL     1      37.318 -24.381 -13.464  0.00  0.00    +0.208 C 
ATOM      5  C   UNL     1      37.150 -25.854 -13.334  0.00  0.00    +0.225 C 
BRANCH   5   8
ATOM      6  O   UNL     1      38.384 -27.163 -14.829  0.00  0.00    -0.273 OA
ATOM      7  N   UNL     1      36.115 -26.950 -15.191  0.00  0.00    -0.327 N 
ATOM      8  C   UNL     1      37.288 -26.715 -14.514  0.00  0.00    +0.250 C 
ATOM      9  H   UNL     1      36.117 -27.518 -15.995  0.00  0.00    +0.145 HD
ATOM     10  H   UNL     1      35.274 -26.551 -14.872  0.00  0.00    +0.145 HD
ENDBRANCH   5   8
ENDBRANCH   2   4
BRANCH   2  11
ATOM     11  C   UNL     1      36.410 -23.142 -15.490  0.00  0.00    +0.072 C 
BRANCH  11  12
ATOM     12  C   UNL     1      36.784 -21.913 -16.317  0.00  0.00    +0.034 C 
BRANCH  12  13
ATOM     13  C   UNL     1      36.377 -22.051 -17.758  0.00  0.00    -0.030 C 
ATOM     14  C   UNL     1      36.677 -21.152 -18.707  0.00  0.00    -0.026 C 
BRANCH  14  15
ATOM     15  C   UNL     1      36.269 -21.288 -20.144  0.00  0.00    +0.051 C 
BRANCH  15  16
ATOM     16  C   UNL     1      35.107 -20.397 -20.474  0.00  0.00    -0.026 C 
ATOM     17  C   UNL     1      33.830 -20.706 -20.205  0.00  0.00    -0.030 C 
ATOM     18  C   UNL     1      32.675 -19.819 -20.529  0.00  0.00    +0.030 C 
ENDBRANCH  15  16
ENDBRANCH  14  15
ENDBRANCH  12  13
ENDBRANCH  11  12
ENDBRANCH   2  11
TORSDOF 7
ENDMDL
MODEL 3
REMARK VINA RESULT:      -7.3      6.143      9.469
REMARK  Name = 5282054
REMARK  7 active torsions:
REMARK  status: ('A' for Active; 'I' for Inactive)
REMARK    1  A    between atoms: C_2  and  C_4
REMARK    2  A    between atoms: C_2  and  C_11
REMARK    3  A    between atoms: C_5  and  C_8
REMARK    4  A    between atoms: C_11  and  C_12
REMARK    5  A    between atoms: C_12  and  C_13
REMARK    6  A    between atoms: C_14  and  C_15
REMARK    7  A    between atoms: C_15  and  C_16
REMARK                            x       y       z     vdW  Elec       q    Type
REMARK                         _______ _______ _______ _____ _____    ______ ____
ROOT
ATOM      1  O   UNL     1      36.020 -18.379 -20.632  0.00  0.00    -0.293 OA
ATOM      2  C   UNL     1      35.304 -18.365 -21.625  0.00  0.00    +0.181 C 
ENDROOT
BRANCH   2   4
ATOM      3  O   UNL     1      34.235 -16.893 -23.223  0.00  0.00    -0.336 OA
ATOM      4  C   UNL     1      35.476 -17.293 -22.650  0.00  0.00    +0.208 C 
ATOM      5  C   UNL     1      34.909 -15.942 -22.388  0.00  0.00    +0.225 C 
BRANCH   5   8
ATOM      6  O   UNL     1      34.855 -15.348 -20.125  0.00  0.00    -0.273 OA
ATOM      7  N   UNL     1      32.852 -15.807 -21.174  0.00  0.00    -0.327 N 
ATOM      8  C   UNL     1      34.218 -15.669 -21.122  0.00  0.00    +0.250 C 
ATOM      9  H   UNL     1      32.310 -15.643 -20.369  0.00  0.00    +0.145 HD
ATOM     10  H   UNL     1      32.415 -16.070 -22.016  0.00  0.00    +0.145 HD
ENDBRANCH   5   8
ENDBRANCH   2   4
BRANCH   2  11
ATOM     11  C   UNL     1      34.235 -19.393 -21.934  0.00  0.00    +0.072 C 
BRANCH  11  12
ATOM     12  C   UNL     1      33.108 -19.431 -20.903  0.00  0.00    +0.034 C 
BRANCH  12  13
ATOM     13  C   UNL     1      33.102 -20.710 -20.114  0.00  0.00    -0.030 C 
ATOM     14  C   UNL     1      34.200 -21.260 -19.576  0.00  0.00    -0.026 C 
BRANCH  14  15
ATOM     15  C   UNL     1      34.195 -22.538 -18.790  0.00  0.00    +0.051 C 
BRANCH  15  16
ATOM     16  C   UNL     1      35.152 -22.480 -17.636  0.00  0.00    -0.026 C 
ATOM     17  C   UNL     1      36.342 -21.863 -17.684  0.00  0.00    -0.030 C 
ATOM     18  C   UNL     1      37.292 -21.800 -16.535  0.00  0.00    +0.030 C 
ENDBRANCH  15  16
ENDBRANCH  14  15
ENDBRANCH  12  13
ENDBRANCH  11  12
ENDBRANCH   2  11
TORSDOF 7
ENDMDL
MODEL 4
REMARK VINA RESULT:      -7.2      1.593      1.970
REMARK  Name = 5282054
REMARK  7 active torsions:
REMARK  status: ('A' for Active; 'I' for Inactive)
REMARK    1  A    between atoms: C_2  and  C_4
REMARK    2  A    between atoms: C_2  and  C_11
REMARK    3  A    between atoms: C_5  and  C_8
REMARK    4  A    between atoms: C_11  and  C_12
REMARK    5  A    between atoms: C_12  and  C_13
REMARK    6  A    between atoms: C_14  and  C_15
REMARK    7  A    between atoms: C_15  and  C_16
REMARK                            x       y       z     vdW  Elec       q    Type
REMARK                         _______ _______ _______ _____ _____    ______ ____
ROOT
ATOM      1  O   UNL     1      37.556 -22.865 -14.566  0.00  0.00    -0.293 OA
ATOM      2  C   UNL     1      37.277 -24.029 -14.822  0.00  0.00    +0.181 C 
ENDROOT
BRANCH   2   4
ATOM      3  O   UNL     1      39.408 -24.669 -13.865  0.00  0.00    -0.336 OA
ATOM      4  C   UNL     1      38.314 -25.093 -14.672  0.00  0.00    +0.208 C 
ATOM      5  C   UNL     1      38.554 -25.686 -13.328  0.00  0.00    +0.225 C 
BRANCH   5   8
ATOM      6  O   UNL     1      36.773 -25.888 -11.823  0.00  0.00    -0.273 OA
ATOM      7  N   UNL     1      38.204 -24.094 -11.577  0.00  0.00    -0.327 N 
ATOM      8  C   UNL     1      37.754 -25.246 -12.179  0.00  0.00    +0.250 C 
ATOM      9  H   UNL     1      37.726 -23.727 -10.799  0.00  0.00    +0.145 HD
ATOM     10  H   UNL     1      39.002 -23.636 -11.926  0.00  0.00    +0.145 HD
ENDBRANCH   5   8
ENDBRANCH   2   4
BRANCH   2  11
ATOM     11  C   UNL     1      35.912 -24.512 -15.270  0.00  0.00    +0.072 C 
BRANCH  11  12
ATOM     12  C   UNL     1      34.755 -23.724 -14.657  0.00  0.00    +0.034 C 
BRANCH  12  13
ATOM     13  C   UNL     1      33.853 -23.132 -15.703  0.00  0.00    -0.030 C 
ATOM     14  C   UNL     1      33.986 -23.360 -17.018  0.00  0.00    -0.026 C 
BRANCH  14  15
ATOM     15  C   UNL     1      33.086 -22.768 -18.063  0.00  0.00    +0.051 C 
BRANCH  15  16
ATOM     16  C   UNL     1      33.843 -21.872 -18.999  0.00  0.00    -0.026 C 
ATOM     17  C   UNL     1      33.264 -20.939 -19.769  0.00  0.00    -0.030 C 
ATOM     18  C   UNL     1      34.016 -20.044 -20.697  0.00  0.00    +0.030 C 
ENDBRANCH  15  16
ENDBRANCH  14  15
ENDBRANCH  12  13
ENDBRANCH  11  12
ENDBRANCH   2  11
TORSDOF 7
ENDMDL
MODEL 5
REMARK VINA RESULT:      -7.2      2.410      3.411
REMARK  Name = 5282054
REMARK  7 active torsions:
REMARK  status: ('A' for Active; 'I' for Inactive)
REMARK    1  A    between atoms: C_2  and  C_4
REMARK    2  A    between atoms: C_2  and  C_11
REMARK    3  A    between atoms: C_5  and  C_8
REMARK    4  A    between atoms: C_11  and  C_12
REMARK    5  A    between atoms: C_12  and  C_13
REMARK    6  A    between atoms: C_14  and  C_15
REMARK    7  A    between atoms: C_15  and  C_16
REMARK                            x       y       z     vdW  Elec       q    Type
REMARK                         _______ _______ _______ _____ _____    ______ ____
ROOT
ATOM      1  O   UNL     1      36.181 -22.780 -16.618  0.00  0.00    -0.293 OA
ATOM      2  C   UNL     1      35.174 -23.115 -16.010  0.00  0.00    +0.181 C 
ENDROOT
BRANCH   2   4
ATOM      3  O   UNL     1      34.538 -24.599 -14.204  0.00  0.00    -0.336 OA
ATOM      4  C   UNL     1      35.252 -23.416 -14.550  0.00  0.00    +0.208 C 
ATOM      5  C   UNL     1      35.967 -24.641 -14.099  0.00  0.00    +0.225 C 
BRANCH   5   8
ATOM      6  O   UNL     1      35.966 -26.398 -15.644  0.00  0.00    -0.273 OA
ATOM      7  N   UNL     1      37.944 -25.260 -15.296  0.00  0.00    -0.327 N 
ATOM      8  C   UNL     1      36.610 -25.519 -15.083  0.00  0.00    +0.250 C 
ATOM      9  H   UNL     1      38.453 -25.802 -15.940  0.00  0.00    +0.145 HD
ATOM     10  H   UNL     1      38.388 -24.534 -14.803  0.00  0.00    +0.145 HD
ENDBRANCH   5   8
ENDBRANCH   2   4
BRANCH   2  11
ATOM     11  C   UNL     1      33.793 -23.232 -16.623  0.00  0.00    +0.072 C 
BRANCH  11  12
ATOM     12  C   UNL     1      33.798 -23.196 -18.151  0.00  0.00    +0.034 C 
BRANCH  12  13
ATOM     13  C   UNL     1      33.192 -21.932 -18.693  0.00  0.00    -0.030 C 
ATOM     14  C   UNL     1      33.470 -21.432 -19.906  0.00  0.00    -0.026 C 
BRANCH  14  15
ATOM     15  C   UNL     1      32.866 -20.169 -20.446  0.00  0.00    +0.051 C 
BRANCH  15  16
ATOM     16  C   UNL     1      33.881 -19.344 -21.182  0.00  0.00    -0.026 C 
ATOM     17  C   UNL     1      35.199 -19.388 -20.935  0.00  0.00    -0.030 C 
ATOM     18  C   UNL     1      36.210 -18.571 -21.669  0.00  0.00    +0.030 C 
ENDBRANCH  15  16
ENDBRANCH  14  15
ENDBRANCH  12  13
ENDBRANCH  11  12
ENDBRANCH   2  11
TORSDOF 7
ENDMDL
MODEL 6
REMARK VINA RESULT:      -7.1      2.202      2.960
REMARK  Name = 5282054
REMARK  7 active torsions:
REMARK  status: ('A' for Active; 'I' for Inactive)
REMARK    1  A    between atoms: C_2  and  C_4
REMARK    2  A    between atoms: C_2  and  C_11
REMARK    3  A    between atoms: C_5  and  C_8
REMARK    4  A    between atoms: C_11  and  C_12
REMARK    5  A    between atoms: C_12  and  C_13
REMARK    6  A    between atoms: C_14  and  C_15
REMARK    7  A    between atoms: C_15  and  C_16
REMARK                            x       y       z     vdW  Elec       q    Type
REMARK                         _______ _______ _______ _____ _____    ______ ____
ROOT
ATOM      1  O   UNL     1      34.620 -24.065 -11.967  0.00  0.00    -0.293 OA
ATOM      2  C   UNL     1      35.522 -23.630 -12.671  0.00  0.00    +0.181 C 
ENDROOT
BRANCH   2   4
ATOM      3  O   UNL     1      37.070 -24.024 -10.851  0.00  0.00    -0.336 OA
ATOM      4  C   UNL     1      36.851 -23.317 -12.068  0.00  0.00    +0.208 C 
ATOM      5  C   UNL     1      37.877 -24.392 -11.977  0.00  0.00    +0.225 C 
BRANCH   5   8
ATOM      6  O   UNL     1      36.985 -26.550 -11.820  0.00  0.00    -0.273 OA
ATOM      7  N   UNL     1      38.038 -25.952 -13.784  0.00  0.00    -0.327 N 
ATOM      8  C   UNL     1      37.586 -25.730 -12.505  0.00  0.00    +0.250 C 
ATOM      9  H   UNL     1      37.885 -26.823 -14.216  0.00  0.00    +0.145 HD
ATOM     10  H   UNL     1      38.514 -25.239 -14.268  0.00  0.00    +0.145 HD
ENDBRANCH   5   8
ENDBRANCH   2   4
BRANCH   2  11
ATOM     11  C   UNL     1      35.416 -23.396 -14.164  0.00  0.00    +0.072 C 
BRANCH  11  12
ATOM     12  C   UNL     1      34.325 -24.229 -14.836  0.00  0.00    +0.034 C 
BRANCH  12  13
ATOM     13  C   UNL     1      33.560 -23.442 -15.863  0.00  0.00    -0.030 C 
ATOM     14  C   UNL     1      33.918 -23.352 -17.152  0.00  0.00    -0.026 C 
BRANCH  14  15
ATOM     15  C   UNL     1      33.156 -22.565 -18.177  0.00  0.00    +0.051 C 
BRANCH  15  16
ATOM     16  C   UNL     1      34.075 -21.911 -19.167  0.00  0.00    -0.026 C 
ATOM     17  C   UNL     1      35.405 -21.835 -19.011  0.00  0.00    -0.030 C 
ATOM     18  C   UNL     1      36.322 -21.190 -19.996  0.00  0.00    +0.030 C 
ENDBRANCH  15  16
ENDBRANCH  14  15
ENDBRANCH  12  13
ENDBRANCH  11  12
ENDBRANCH   2  11
TORSDOF 7
ENDMDL
MODEL 7
REMARK VINA RESULT:      -7.1      6.694      9.467
REMARK  Name = 5282054
REMARK  7 active torsions:
REMARK  status: ('A' for Active; 'I' for Inactive)
REMARK    1  A    between atoms: C_2  and  C_4
REMARK    2  A    between atoms: C_2  and  C_11
REMARK    3  A    between atoms: C_5  and  C_8
REMARK    4  A    between atoms: C_11  and  C_12
REMARK    5  A    between atoms: C_12  and  C_13
REMARK    6  A    between atoms: C_14  and  C_15
REMARK    7  A    between atoms: C_15  and  C_16
REMARK                            x       y       z     vdW  Elec       q    Type
REMARK                         _______ _______ _______ _____ _____    ______ ____
ROOT
ATOM      1  O   UNL     1      36.035 -18.472 -20.657  0.00  0.00    -0.293 OA
ATOM      2  C   UNL     1      35.299 -18.407 -21.632  0.00  0.00    +0.181 C 
ENDROOT
BRANCH   2   4
ATOM      3  O   UNL     1      34.247 -16.883 -23.192  0.00  0.00    -0.336 OA
ATOM      4  C   UNL     1      35.483 -17.315 -22.633  0.00  0.00    +0.208 C 
ATOM      5  C   UNL     1      34.938 -15.962 -22.338  0.00  0.00    +0.225 C 
BRANCH   5   8
ATOM      6  O   UNL     1      34.900 -15.398 -20.067  0.00  0.00    -0.273 OA
ATOM      7  N   UNL     1      32.890 -15.848 -21.108  0.00  0.00    -0.327 N 
ATOM      8  C   UNL     1      34.257 -15.708 -21.064  0.00  0.00    +0.250 C 
ATOM      9  H   UNL     1      32.354 -15.696 -20.297  0.00  0.00    +0.145 HD
ATOM     10  H   UNL     1      32.448 -16.101 -21.950  0.00  0.00    +0.145 HD
ENDBRANCH   5   8
ENDBRANCH   2   4
BRANCH   2  11
ATOM     11  C   UNL     1      34.188 -19.391 -21.943  0.00  0.00    +0.072 C 
BRANCH  11  12
ATOM     12  C   UNL     1      33.360 -19.782 -20.720  0.00  0.00    +0.034 C 
BRANCH  12  13
ATOM     13  C   UNL     1      33.957 -20.943 -19.976  0.00  0.00    -0.030 C 
ATOM     14  C   UNL     1      33.278 -21.692 -19.094  0.00  0.00    -0.026 C 
BRANCH  14  15
ATOM     15  C   UNL     1      33.874 -22.850 -18.350  0.00  0.00    +0.051 C 
BRANCH  15  16
ATOM     16  C   UNL     1      32.976 -23.314 -17.241  0.00  0.00    -0.026 C 
ATOM     17  C   UNL     1      31.811 -22.728 -16.931  0.00  0.00    -0.030 C 
ATOM     18  C   UNL     1      30.914 -23.191 -15.831  0.00  0.00    +0.030 C 
ENDBRANCH  15  16
ENDBRANCH  14  15
ENDBRANCH  12  13
ENDBRANCH  11  12
ENDBRANCH   2  11
TORSDOF 7
ENDMDL
MODEL 8
REMARK VINA RESULT:      -7.1      7.906     10.932
REMARK  Name = 5282054
REMARK  7 active torsions:
REMARK  status: ('A' for Active; 'I' for Inactive)
REMARK    1  A    between atoms: C_2  and  C_4
REMARK    2  A    between atoms: C_2  and  C_11
REMARK    3  A    between atoms: C_5  and  C_8
REMARK    4  A    between atoms: C_11  and  C_12
REMARK    5  A    between atoms: C_12  and  C_13
REMARK    6  A    between atoms: C_14  and  C_15
REMARK    7  A    between atoms: C_15  and  C_16
REMARK                            x       y       z     vdW  Elec       q    Type
REMARK                         _______ _______ _______ _____ _____    ______ ____
ROOT
ATOM      1  O   UNL     1      34.988 -15.024 -20.442  0.00  0.00    -0.293 OA
ATOM      2  C   UNL     1      34.068 -15.719 -20.850  0.00  0.00    +0.181 C 
ENDROOT
BRANCH   2   4
ATOM      3  O   UNL     1      32.773 -13.696 -21.161  0.00  0.00    -0.336 OA
ATOM      4  C   UNL     1      32.719 -15.116 -21.065  0.00  0.00    +0.208 C 
ATOM      5  C   UNL     1      32.431 -14.421 -22.349  0.00  0.00    +0.225 C 
BRANCH   5   8
ATOM      6  O   UNL     1      33.511 -15.230 -24.261  0.00  0.00    -0.273 OA
ATOM      7  N   UNL     1      34.307 -13.286 -23.306  0.00  0.00    -0.327 N 
ATOM      8  C   UNL     1      33.457 -14.363 -23.397  0.00  0.00    +0.250 C 
ATOM      9  H   UNL     1      35.025 -13.169 -23.969  0.00  0.00    +0.145 HD
ATOM     10  H   UNL     1      34.197 -12.632 -22.579  0.00  0.00    +0.145 HD
ENDBRANCH   5   8
ENDBRANCH   2   4
BRANCH   2  11
ATOM     11  C   UNL     1      34.183 -17.189 -21.198  0.00  0.00    +0.072 C 
BRANCH  11  12
ATOM     12  C   UNL     1      35.412 -17.521 -22.044  0.00  0.00    +0.034 C 
BRANCH  12  13
ATOM     13  C   UNL     1      36.203 -18.665 -21.475  0.00  0.00    -0.030 C 
ATOM     14  C   UNL     1      35.671 -19.638 -20.720  0.00  0.00    -0.026 C 
BRANCH  14  15
ATOM     15  C   UNL     1      36.460 -20.778 -20.150  0.00  0.00    +0.051 C 
BRANCH  15  16
ATOM     16  C   UNL     1      35.620 -21.635 -19.248  0.00  0.00    -0.026 C 
ATOM     17  C   UNL     1      34.284 -21.713 -19.328  0.00  0.00    -0.030 C 
ATOM     18  C   UNL     1      33.447 -22.568 -18.435  0.00  0.00    +0.030 C 
ENDBRANCH  15  16
ENDBRANCH  14  15
ENDBRANCH  12  13
ENDBRANCH  11  12
ENDBRANCH   2  11
TORSDOF 7
ENDMDL
MODEL 9
REMARK VINA RESULT:      -7.0      8.445     11.592
REMARK  Name = 5282054
REMARK  7 active torsions:
REMARK  status: ('A' for Active; 'I' for Inactive)
REMARK    1  A    between atoms: C_2  and  C_4
REMARK    2  A    between atoms: C_2  and  C_11
REMARK    3  A    between atoms: C_5  and  C_8
REMARK    4  A    between atoms: C_11  and  C_12
REMARK    5  A    between atoms: C_12  and  C_13
REMARK    6  A    between atoms: C_14  and  C_15
REMARK    7  A    between atoms: C_15  and  C_16
REMARK                            x       y       z     vdW  Elec       q    Type
REMARK                         _______ _______ _______ _____ _____    ______ ____
ROOT
ATOM      1  O   UNL     1      34.948 -15.642 -20.341  0.00  0.00    -0.293 OA
ATOM      2  C   UNL     1      34.077 -15.737 -21.196  0.00  0.00    +0.181 C 
ENDROOT
BRANCH   2   4
ATOM      3  O   UNL     1      35.719 -16.885 -22.557  0.00  0.00    -0.336 OA
ATOM      4  C   UNL     1      34.389 -16.378 -22.508  0.00  0.00    +0.208 C 
ATOM      5  C   UNL     1      34.653 -17.842 -22.554  0.00  0.00    +0.225 C 
BRANCH   5   8
ATOM      6  O   UNL     1      33.509 -19.136 -20.975  0.00  0.00    -0.273 OA
ATOM      7  N   UNL     1      35.763 -18.764 -20.646  0.00  0.00    -0.327 N 
ATOM      8  C   UNL     1      34.574 -18.641 -21.325  0.00  0.00    +0.250 C 
ATOM      9  H   UNL     1      35.800 -19.284 -19.811  0.00  0.00    +0.145 HD
ATOM     10  H   UNL     1      36.576 -18.334 -20.995  0.00  0.00    +0.145 HD
ENDBRANCH   5   8
ENDBRANCH   2   4
BRANCH   2  11
ATOM     11  C   UNL     1      32.646 -15.268 -21.028  0.00  0.00    +0.072 C 
BRANCH  11  12
ATOM     12  C   UNL     1      32.410 -13.841 -21.521  0.00  0.00    +0.034 C 
BRANCH  12  13
ATOM     13  C   UNL     1      32.156 -12.883 -20.391  0.00  0.00    -0.030 C 
ATOM     14  C   UNL     1      31.459 -11.744 -20.521  0.00  0.00    -0.026 C 
BRANCH  14  15
ATOM     15  C   UNL     1      31.208 -10.787 -19.394  0.00  0.00    +0.051 C 
BRANCH  15  16
ATOM     16  C   UNL     1      31.912  -9.479 -19.612  0.00  0.00    -0.026 C 
ATOM     17  C   UNL     1      32.176  -8.969 -20.824  0.00  0.00    -0.030 C 
ATOM     18  C   UNL     1      32.872  -7.667 -21.043  0.00  0.00    +0.030 C 
ENDBRANCH  15  16
ENDBRANCH  14  15
ENDBRANCH  12  13
ENDBRANCH  11  12
ENDBRANCH   2  11
TORSDOF 7
ENDMDL
