MODEL 1
REMARK VINA RESULT:     -10.2      0.000      0.000
REMARK  Name = 62279
REMARK  7 active torsions:
REMARK  status: ('A' for Active; 'I' for Inactive)
REMARK    1  A    between atoms: N_1  and  C_20
REMARK    2  A    between atoms: C_2  and  N_10
REMARK    3  A    between atoms: N_10  and  C_12
REMARK    4  A    between atoms: C_11  and  C_18
REMARK    5  A    between atoms: C_20  and  C_21
REMARK    6  A    between atoms: C_21  and  C_22
REMARK    7  A    between atoms: C_21  and  O_28
REMARK                            x       y       z     vdW  Elec       q    Type
REMARK                         _______ _______ _______ _____ _____    ______ ____
ROOT
ATOM      1  N   UNL     1      32.886 -13.564 -23.087  0.00  0.00    +0.389 N 
ATOM      2  C   UNL     1      32.637 -10.637 -23.498  0.00  0.00    +0.076 C 
ATOM      3  C   UNL     1      32.515 -11.264 -22.096  0.00  0.00    -0.002 C 
ATOM      4  C   UNL     1      33.489 -11.519 -24.416  0.00  0.00    -0.003 C 
ATOM      5  C   UNL     1      32.062 -12.734 -22.200  0.00  0.00    -0.076 C 
ATOM      6  C   UNL     1      32.995 -12.966 -24.422  0.00  0.00    -0.076 C 
ATOM      7  C   UNL     1      31.535 -10.484 -21.213  0.00  0.00    -0.000 C 
ATOM      8  H   UNL     1      32.408 -14.459 -23.194  0.00  0.00    -0.080 HD
ENDROOT
BRANCH   2  10
ATOM      9  O   UNL     1      35.404  -9.845 -24.122  0.00  0.00    -0.275 OA
ATOM     10  N   UNL     1      33.198  -9.307 -23.442  0.00  0.00    -0.260 N 
ATOM     11  C   UNL     1      34.559  -9.021 -23.765  0.00  0.00    +0.229 C 
BRANCH  10  12
ATOM     12  C   UNL     1      32.332  -8.202 -23.035  0.00  0.00    +0.054 C 
ATOM     13  C   UNL     1      31.314  -7.856 -23.872  0.00  0.00    +0.015 C 
ATOM     14  C   UNL     1      32.603  -7.594 -21.845  0.00  0.00    +0.015 C 
ATOM     15  C   UNL     1      30.489  -6.800 -23.484  0.00  0.00    +0.001 C 
ATOM     16  C   UNL     1      31.777  -6.538 -21.457  0.00  0.00    +0.001 C 
ATOM     17  C   UNL     1      30.721  -6.142 -22.276  0.00  0.00    +0.000 C 
ENDBRANCH  10  12
BRANCH  11  18
ATOM     18  C   UNL     1      34.967  -7.561 -23.596  0.00  0.00    +0.086 C 
ATOM     19  C   UNL     1      34.726  -6.732 -24.849  0.00  0.00    +0.010 C 
ENDBRANCH  11  18
ENDBRANCH   2  10
BRANCH   1  20
ATOM     20  C   UNL     1      34.190 -13.875 -22.508  0.00  0.00    -0.043 C 
BRANCH  20  21
ATOM     21  C   UNL     1      34.095 -15.086 -21.571  0.00  0.00    +0.112 C 
BRANCH  21  22
ATOM     22  C   UNL     1      34.533 -16.358 -22.262  0.00  0.00    +0.002 C 
ATOM     23  C   UNL     1      34.872 -17.461 -21.498  0.00  0.00    -0.002 C 
ATOM     24  C   UNL     1      34.587 -16.392 -23.645  0.00  0.00    -0.002 C 
ATOM     25  C   UNL     1      35.275 -18.633 -22.135  0.00  0.00    -0.000 C 
ATOM     26  C   UNL     1      34.990 -17.565 -24.282  0.00  0.00    -0.000 C 
ATOM     27  C   UNL     1      35.335 -18.685 -23.527  0.00  0.00    -0.000 C 
ENDBRANCH  21  22
BRANCH  21  28
ATOM     28  O   UNL     1      34.927 -14.892 -20.427  0.00  0.00    -0.382 OA
ATOM     29  H   UNL     1      34.759 -15.596 -19.782  0.00  0.00    +0.211 HD
ENDBRANCH  21  28
ENDBRANCH  20  21
ENDBRANCH   1  20
TORSDOF 7
ENDMDL
MODEL 2
REMARK VINA RESULT:      -9.8      3.664      8.730
REMARK  Name = 62279
REMARK  7 active torsions:
REMARK  status: ('A' for Active; 'I' for Inactive)
REMARK    1  A    between atoms: N_1  and  C_20
REMARK    2  A    between atoms: C_2  and  N_10
REMARK    3  A    between atoms: N_10  and  C_12
REMARK    4  A    between atoms: C_11  and  C_18
REMARK    5  A    between atoms: C_20  and  C_21
REMARK    6  A    between atoms: C_21  and  C_22
REMARK    7  A    between atoms: C_21  and  O_28
REMARK                            x       y       z     vdW  Elec       q    Type
REMARK                         _______ _______ _______ _____ _____    ______ ____
ROOT
ATOM      1  N   UNL     1      32.871 -13.953 -21.149  0.00  0.00    +0.389 N 
ATOM      2  C   UNL     1      34.173 -16.618 -21.204  0.00  0.00    +0.076 C 
ATOM      3  C   UNL     1      32.638 -16.473 -21.229  0.00  0.00    -0.002 C 
ATOM      4  C   UNL     1      34.846 -15.371 -21.782  0.00  0.00    -0.003 C 
ATOM      5  C   UNL     1      32.212 -15.139 -20.586  0.00  0.00    -0.076 C 
ATOM      6  C   UNL     1      34.330 -14.094 -21.117  0.00  0.00    -0.076 C 
ATOM      7  C   UNL     1      31.950 -17.637 -20.507  0.00  0.00    -0.000 C 
ATOM      8  H   UNL     1      32.630 -13.161 -20.552  0.00  0.00    -0.080 HD
ENDROOT
BRANCH   2  10
ATOM      9  O   UNL     1      34.278 -16.967 -24.126  0.00  0.00    -0.275 OA
ATOM     10  N   UNL     1      34.611 -17.790 -21.928  0.00  0.00    -0.260 N 
ATOM     11  C   UNL     1      34.625 -17.863 -23.353  0.00  0.00    +0.229 C 
BRANCH  10  12
ATOM     12  C   UNL     1      35.059 -18.952 -21.165  0.00  0.00    +0.054 C 
ATOM     13  C   UNL     1      34.117 -19.861 -20.785  0.00  0.00    +0.015 C 
ATOM     14  C   UNL     1      36.390 -19.049 -20.886  0.00  0.00    +0.015 C 
ATOM     15  C   UNL     1      34.545 -20.970 -20.055  0.00  0.00    +0.001 C 
ATOM     16  C   UNL     1      36.818 -20.158 -20.156  0.00  0.00    +0.001 C 
ATOM     17  C   UNL     1      35.896 -21.118 -19.741  0.00  0.00    +0.000 C 
ENDBRANCH  10  12
BRANCH  11  18
ATOM     18  C   UNL     1      35.078 -19.205 -23.923  0.00  0.00    +0.086 C 
ATOM     19  C   UNL     1      34.386 -19.552 -25.233  0.00  0.00    +0.010 C 
ENDBRANCH  11  18
ENDBRANCH   2  10
BRANCH   1  20
ATOM     20  C   UNL     1      32.372 -13.617 -22.479  0.00  0.00    -0.043 C 
BRANCH  20  21
ATOM     21  C   UNL     1      33.311 -12.628 -23.180  0.00  0.00    +0.112 C 
BRANCH  21  22
ATOM     22  C   UNL     1      33.396 -12.902 -24.665  0.00  0.00    +0.002 C 
ATOM     23  C   UNL     1      33.841 -11.902 -25.513  0.00  0.00    -0.002 C 
ATOM     24  C   UNL     1      33.028 -14.147 -25.146  0.00  0.00    -0.002 C 
ATOM     25  C   UNL     1      33.920 -12.155 -26.882  0.00  0.00    -0.000 C 
ATOM     26  C   UNL     1      33.107 -14.400 -26.515  0.00  0.00    -0.000 C 
ATOM     27  C   UNL     1      33.552 -13.403 -27.383  0.00  0.00    -0.000 C 
ENDBRANCH  21  22
BRANCH  21  28
ATOM     28  O   UNL     1      32.844 -11.290 -23.001  0.00  0.00    -0.382 OA
ATOM     29  H   UNL     1      32.239 -11.059 -23.723  0.00  0.00    +0.211 HD
ENDBRANCH  21  28
ENDBRANCH  20  21
ENDBRANCH   1  20
TORSDOF 7
ENDMDL
MODEL 3
REMARK VINA RESULT:      -9.7      4.944      7.721
REMARK  Name = 62279
REMARK  7 active torsions:
REMARK  status: ('A' for Active; 'I' for Inactive)
REMARK    1  A    between atoms: N_1  and  C_20
REMARK    2  A    between atoms: C_2  and  N_10
REMARK    3  A    between atoms: N_10  and  C_12
REMARK    4  A    between atoms: C_11  and  C_18
REMARK    5  A    between atoms: C_20  and  C_21
REMARK    6  A    between atoms: C_21  and  C_22
REMARK    7  A    between atoms: C_21  and  O_28
REMARK                            x       y       z     vdW  Elec       q    Type
REMARK                         _______ _______ _______ _____ _____    ______ ____
ROOT
ATOM      1  N   UNL     1      35.659 -20.038 -21.262  0.00  0.00    +0.389 N 
ATOM      2  C   UNL     1      35.241 -17.673 -23.003  0.00  0.00    +0.076 C 
ATOM      3  C   UNL     1      34.460 -18.984 -23.227  0.00  0.00    -0.002 C 
ATOM      4  C   UNL     1      35.672 -17.542 -21.540  0.00  0.00    -0.003 C 
ATOM      5  C   UNL     1      35.248 -20.183 -22.665  0.00  0.00    -0.076 C 
ATOM      6  C   UNL     1      36.405 -18.794 -21.055  0.00  0.00    -0.076 C 
ATOM      7  C   UNL     1      34.162 -19.214 -24.713  0.00  0.00    -0.000 C 
ATOM      8  H   UNL     1      36.292 -20.810 -21.051  0.00  0.00    -0.080 HD
ENDROOT
BRANCH   2  10
ATOM      9  O   UNL     1      34.787 -16.666 -25.733  0.00  0.00    -0.275 OA
ATOM     10  N   UNL     1      34.465 -16.517 -23.389  0.00  0.00    -0.260 N 
ATOM     11  C   UNL     1      34.303 -16.106 -24.746  0.00  0.00    +0.229 C 
BRANCH  10  12
ATOM     12  C   UNL     1      33.817 -15.732 -22.340  0.00  0.00    +0.054 C 
ATOM     13  C   UNL     1      32.805 -16.321 -21.643  0.00  0.00    +0.015 C 
ATOM     14  C   UNL     1      34.269 -14.463 -22.132  0.00  0.00    +0.015 C 
ATOM     15  C   UNL     1      32.185 -15.571 -20.644  0.00  0.00    +0.001 C 
ATOM     16  C   UNL     1      33.649 -13.712 -21.133  0.00  0.00    +0.001 C 
ATOM     17  C   UNL     1      32.608 -14.266 -20.389  0.00  0.00    +0.000 C 
ENDBRANCH  10  12
BRANCH  11  18
ATOM     18  C   UNL     1      33.486 -14.831 -24.938  0.00  0.00    +0.086 C 
ATOM     19  C   UNL     1      33.052 -14.621 -26.382  0.00  0.00    +0.010 C 
ENDBRANCH  11  18
ENDBRANCH   2  10
BRANCH   1  20
ATOM     20  C   UNL     1      34.539 -20.178 -20.336  0.00  0.00    -0.043 C 
BRANCH  20  21
ATOM     21  C   UNL     1      34.287 -21.654 -20.003  0.00  0.00    +0.112 C 
BRANCH  21  22
ATOM     22  C   UNL     1      34.890 -22.032 -18.669  0.00  0.00    +0.002 C 
ATOM     23  C   UNL     1      34.120 -22.723 -17.750  0.00  0.00    -0.002 C 
ATOM     24  C   UNL     1      36.201 -21.679 -18.394  0.00  0.00    -0.002 C 
ATOM     25  C   UNL     1      34.676 -23.073 -16.520  0.00  0.00    -0.000 C 
ATOM     26  C   UNL     1      36.757 -22.028 -17.164  0.00  0.00    -0.000 C 
ATOM     27  C   UNL     1      35.994 -22.724 -16.227  0.00  0.00    -0.000 C 
ENDBRANCH  21  22
BRANCH  21  28
ATOM     28  O   UNL     1      32.884 -21.916 -19.948  0.00  0.00    -0.382 OA
ATOM     29  H   UNL     1      32.396 -21.106 -20.163  0.00  0.00    +0.211 HD
ENDBRANCH  21  28
ENDBRANCH  20  21
ENDBRANCH   1  20
TORSDOF 7
ENDMDL
MODEL 4
REMARK VINA RESULT:      -9.4      2.209      3.726
REMARK  Name = 62279
REMARK  7 active torsions:
REMARK  status: ('A' for Active; 'I' for Inactive)
REMARK    1  A    between atoms: N_1  and  C_20
REMARK    2  A    between atoms: C_2  and  N_10
REMARK    3  A    between atoms: N_10  and  C_12
REMARK    4  A    between atoms: C_11  and  C_18
REMARK    5  A    between atoms: C_20  and  C_21
REMARK    6  A    between atoms: C_21  and  C_22
REMARK    7  A    between atoms: C_21  and  O_28
REMARK                            x       y       z     vdW  Elec       q    Type
REMARK                         _______ _______ _______ _____ _____    ______ ____
ROOT
ATOM      1  N   UNL     1      31.414 -11.543 -19.948  0.00  0.00    +0.389 N 
ATOM      2  C   UNL     1      31.354  -9.184 -21.745  0.00  0.00    +0.076 C 
ATOM      3  C   UNL     1      32.347  -9.273 -20.569  0.00  0.00    -0.002 C 
ATOM      4  C   UNL     1      30.951 -10.582 -22.222  0.00  0.00    -0.003 C 
ATOM      5  C   UNL     1      31.801 -10.209 -19.473  0.00  0.00    -0.076 C 
ATOM      6  C   UNL     1      30.467 -11.454 -21.063  0.00  0.00    -0.076 C 
ATOM      7  C   UNL     1      32.636  -7.891 -19.971  0.00  0.00    -0.000 C 
ATOM      8  H   UNL     1      30.934 -12.011 -19.178  0.00  0.00    -0.080 HD
ENDROOT
BRANCH   2  10
ATOM      9  O   UNL     1      30.387  -6.607 -22.792  0.00  0.00    -0.275 OA
ATOM     10  N   UNL     1      31.901  -8.430 -22.850  0.00  0.00    -0.260 N 
ATOM     11  C   UNL     1      31.359  -7.184 -23.286  0.00  0.00    +0.229 C 
BRANCH  10  12
ATOM     12  C   UNL     1      33.062  -8.970 -23.554  0.00  0.00    +0.054 C 
ATOM     13  C   UNL     1      34.194  -8.211 -23.579  0.00  0.00    +0.015 C 
ATOM     14  C   UNL     1      32.933 -10.194 -24.139  0.00  0.00    +0.015 C 
ATOM     15  C   UNL     1      35.302  -8.726 -24.253  0.00  0.00    +0.001 C 
ATOM     16  C   UNL     1      34.040 -10.709 -24.813  0.00  0.00    +0.001 C 
ATOM     17  C   UNL     1      35.225  -9.975 -24.869  0.00  0.00    +0.000 C 
ENDBRANCH  10  12
BRANCH  11  18
ATOM     18  C   UNL     1      32.051  -6.571 -24.500  0.00  0.00    +0.086 C 
ATOM     19  C   UNL     1      31.893  -5.059 -24.568  0.00  0.00    +0.010 C 
ENDBRANCH  11  18
ENDBRANCH   2  10
BRANCH   1  20
ATOM     20  C   UNL     1      32.570 -12.379 -20.264  0.00  0.00    -0.043 C 
BRANCH  20  21
ATOM     21  C   UNL     1      32.126 -13.774 -20.722  0.00  0.00    +0.112 C 
BRANCH  21  22
ATOM     22  C   UNL     1      32.879 -14.217 -21.956  0.00  0.00    +0.002 C 
ATOM     23  C   UNL     1      33.971 -15.057 -21.816  0.00  0.00    -0.002 C 
ATOM     24  C   UNL     1      32.461 -13.775 -23.200  0.00  0.00    -0.002 C 
ATOM     25  C   UNL     1      34.665 -15.467 -22.954  0.00  0.00    -0.000 C 
ATOM     26  C   UNL     1      33.156 -14.184 -24.337  0.00  0.00    -0.000 C 
ATOM     27  C   UNL     1      34.258 -15.030 -24.214  0.00  0.00    -0.000 C 
ENDBRANCH  21  22
BRANCH  21  28
ATOM     28  O   UNL     1      32.360 -14.731 -19.689  0.00  0.00    -0.382 OA
ATOM     29  H   UNL     1      31.641 -14.688 -19.039  0.00  0.00    +0.211 HD
ENDBRANCH  21  28
ENDBRANCH  20  21
ENDBRANCH   1  20
TORSDOF 7
ENDMDL
MODEL 5
REMARK VINA RESULT:      -9.2      3.553      5.271
REMARK  Name = 62279
REMARK  7 active torsions:
REMARK  status: ('A' for Active; 'I' for Inactive)
REMARK    1  A    between atoms: N_1  and  C_20
REMARK    2  A    between atoms: C_2  and  N_10
REMARK    3  A    between atoms: N_10  and  C_12
REMARK    4  A    between atoms: C_11  and  C_18
REMARK    5  A    between atoms: C_20  and  C_21
REMARK    6  A    between atoms: C_21  and  C_22
REMARK    7  A    between atoms: C_21  and  O_28
REMARK                            x       y       z     vdW  Elec       q    Type
REMARK                         _______ _______ _______ _____ _____    ______ ____
ROOT
ATOM      1  N   UNL     1      31.885 -10.117 -21.929  0.00  0.00    +0.389 N 
ATOM      2  C   UNL     1      31.274  -7.258 -22.429  0.00  0.00    +0.076 C 
ATOM      3  C   UNL     1      32.344  -7.683 -21.404  0.00  0.00    -0.002 C 
ATOM      4  C   UNL     1      31.101  -8.329 -23.509  0.00  0.00    -0.003 C 
ATOM      5  C   UNL     1      32.053  -9.103 -20.880  0.00  0.00    -0.076 C 
ATOM      6  C   UNL     1      30.863  -9.711 -22.899  0.00  0.00    -0.076 C 
ATOM      7  C   UNL     1      32.416  -6.704 -20.227  0.00  0.00    -0.000 C 
ATOM      8  H   UNL     1      31.551 -10.968 -21.475  0.00  0.00    -0.080 HD
ENDROOT
BRANCH   2  10
ATOM      9  O   UNL     1      30.123  -4.623 -21.792  0.00  0.00    -0.275 OA
ATOM     10  N   UNL     1      31.598  -5.992 -23.045  0.00  0.00    -0.260 N 
ATOM     11  C   UNL     1      30.983  -4.761 -22.666  0.00  0.00    +0.229 C 
BRANCH  10  12
ATOM     12  C   UNL     1      32.602  -5.970 -24.107  0.00  0.00    +0.054 C 
ATOM     13  C   UNL     1      33.773  -6.631 -23.883  0.00  0.00    +0.015 C 
ATOM     14  C   UNL     1      32.299  -5.289 -25.248  0.00  0.00    +0.015 C 
ATOM     15  C   UNL     1      34.732  -6.609 -24.895  0.00  0.00    +0.001 C 
ATOM     16  C   UNL     1      33.258  -5.267 -26.261  0.00  0.00    +0.001 C 
ATOM     17  C   UNL     1      34.474  -5.927 -26.085  0.00  0.00    +0.000 C 
ENDBRANCH  10  12
BRANCH  11  18
ATOM     18  C   UNL     1      31.429  -3.544 -23.471  0.00  0.00    +0.086 C 
ATOM     19  C   UNL     1      30.834  -2.243 -22.951  0.00  0.00    +0.010 C 
ENDBRANCH  11  18
ENDBRANCH   2  10
BRANCH   1  20
ATOM     20  C   UNL     1      33.149 -10.474 -22.567  0.00  0.00    -0.043 C 
BRANCH  20  21
ATOM     21  C   UNL     1      32.930 -11.527 -23.660  0.00  0.00    +0.112 C 
BRANCH  21  22
ATOM     22  C   UNL     1      33.861 -11.309 -24.833  0.00  0.00    +0.002 C 
ATOM     23  C   UNL     1      34.838 -10.333 -24.748  0.00  0.00    -0.002 C 
ATOM     24  C   UNL     1      33.716 -12.091 -25.966  0.00  0.00    -0.002 C 
ATOM     25  C   UNL     1      35.696 -10.132 -25.829  0.00  0.00    -0.000 C 
ATOM     26  C   UNL     1      34.574 -11.891 -27.047  0.00  0.00    -0.000 C 
ATOM     27  C   UNL     1      35.564 -10.911 -26.978  0.00  0.00    -0.000 C 
ENDBRANCH  21  22
BRANCH  21  28
ATOM     28  O   UNL     1      33.166 -12.836 -23.141  0.00  0.00    -0.382 OA
ATOM     29  H   UNL     1      34.069 -12.887 -22.793  0.00  0.00    +0.211 HD
ENDBRANCH  21  28
ENDBRANCH  20  21
ENDBRANCH   1  20
TORSDOF 7
ENDMDL
MODEL 6
REMARK VINA RESULT:      -9.1      1.761      2.705
REMARK  Name = 62279
REMARK  7 active torsions:
REMARK  status: ('A' for Active; 'I' for Inactive)
REMARK    1  A    between atoms: N_1  and  C_20
REMARK    2  A    between atoms: C_2  and  N_10
REMARK    3  A    between atoms: N_10  and  C_12
REMARK    4  A    between atoms: C_11  and  C_18
REMARK    5  A    between atoms: C_20  and  C_21
REMARK    6  A    between atoms: C_21  and  C_22
REMARK    7  A    between atoms: C_21  and  O_28
REMARK                            x       y       z     vdW  Elec       q    Type
REMARK                         _______ _______ _______ _____ _____    ______ ____
ROOT
ATOM      1  N   UNL     1      31.274 -11.493 -20.899  0.00  0.00    +0.389 N 
ATOM      2  C   UNL     1      31.681  -8.811 -22.098  0.00  0.00    +0.076 C 
ATOM      3  C   UNL     1      32.285  -9.178 -20.728  0.00  0.00    -0.002 C 
ATOM      4  C   UNL     1      31.475 -10.063 -22.954  0.00  0.00    -0.003 C 
ATOM      5  C   UNL     1      31.466 -10.302 -20.062  0.00  0.00    -0.076 C 
ATOM      6  C   UNL     1      30.695 -11.139 -22.199  0.00  0.00    -0.076 C 
ATOM      7  C   UNL     1      32.347  -7.963 -19.796  0.00  0.00    -0.000 C 
ATOM      8  H   UNL     1      30.602 -12.093 -20.420  0.00  0.00    -0.080 HD
ENDROOT
BRANCH   2  10
ATOM      9  O   UNL     1      34.464  -9.192 -22.983  0.00  0.00    -0.275 OA
ATOM     10  N   UNL     1      32.508  -7.863 -22.810  0.00  0.00    -0.260 N 
ATOM     11  C   UNL     1      33.853  -8.141 -23.198  0.00  0.00    +0.229 C 
BRANCH  10  12
ATOM     12  C   UNL     1      31.941  -6.560 -23.147  0.00  0.00    +0.054 C 
ATOM     13  C   UNL     1      31.958  -5.594 -22.185  0.00  0.00    +0.015 C 
ATOM     14  C   UNL     1      31.432  -6.399 -24.402  0.00  0.00    +0.015 C 
ATOM     15  C   UNL     1      31.415  -4.350 -22.507  0.00  0.00    +0.001 C 
ATOM     16  C   UNL     1      30.889  -5.155 -24.724  0.00  0.00    +0.001 C 
ATOM     17  C   UNL     1      30.881  -4.131 -23.777  0.00  0.00    +0.000 C 
ENDBRANCH  10  12
BRANCH  11  18
ATOM     18  C   UNL     1      34.571  -6.992 -23.898  0.00  0.00    +0.086 C 
ATOM     19  C   UNL     1      34.689  -7.199 -25.401  0.00  0.00    +0.010 C 
ENDBRANCH  11  18
ENDBRANCH   2  10
BRANCH   1  20
ATOM     20  C   UNL     1      32.494 -12.286 -21.029  0.00  0.00    -0.043 C 
BRANCH  20  21
ATOM     21  C   UNL     1      32.163 -13.775 -21.182  0.00  0.00    +0.112 C 
BRANCH  21  22
ATOM     22  C   UNL     1      32.891 -14.388 -22.358  0.00  0.00    +0.002 C 
ATOM     23  C   UNL     1      33.789 -15.417 -22.135  0.00  0.00    -0.002 C 
ATOM     24  C   UNL     1      32.644 -13.905 -23.632  0.00  0.00    -0.002 C 
ATOM     25  C   UNL     1      34.460 -15.982 -23.219  0.00  0.00    -0.000 C 
ATOM     26  C   UNL     1      33.315 -14.470 -24.716  0.00  0.00    -0.000 C 
ATOM     27  C   UNL     1      34.224 -15.508 -24.509  0.00  0.00    -0.000 C 
ENDBRANCH  21  22
BRANCH  21  28
ATOM     28  O   UNL     1      32.540 -14.489 -20.004  0.00  0.00    -0.382 OA
ATOM     29  H   UNL     1      32.846 -15.376 -20.248  0.00  0.00    +0.211 HD
ENDBRANCH  21  28
ENDBRANCH  20  21
ENDBRANCH   1  20
TORSDOF 7
ENDMDL
MODEL 7
REMARK VINA RESULT:      -9.1      1.292      2.272
REMARK  Name = 62279
REMARK  7 active torsions:
REMARK  status: ('A' for Active; 'I' for Inactive)
REMARK    1  A    between atoms: N_1  and  C_20
REMARK    2  A    between atoms: C_2  and  N_10
REMARK    3  A    between atoms: N_10  and  C_12
REMARK    4  A    between atoms: C_11  and  C_18
REMARK    5  A    between atoms: C_20  and  C_21
REMARK    6  A    between atoms: C_21  and  C_22
REMARK    7  A    between atoms: C_21  and  O_28
REMARK                            x       y       z     vdW  Elec       q    Type
REMARK                         _______ _______ _______ _____ _____    ______ ____
ROOT
ATOM      1  N   UNL     1      33.198 -13.445 -23.303  0.00  0.00    +0.389 N 
ATOM      2  C   UNL     1      32.444 -10.587 -23.053  0.00  0.00    +0.076 C 
ATOM      3  C   UNL     1      32.014 -11.625 -21.999  0.00  0.00    -0.002 C 
ATOM      4  C   UNL     1      33.724 -11.033 -23.765  0.00  0.00    -0.003 C 
ATOM      5  C   UNL     1      31.963 -13.035 -22.620  0.00  0.00    -0.076 C 
ATOM      6  C   UNL     1      33.600 -12.456 -24.308  0.00  0.00    -0.076 C 
ATOM      7  C   UNL     1      30.650 -11.280 -21.392  0.00  0.00    -0.000 C 
ATOM      8  H   UNL     1      32.995 -14.315 -23.797  0.00  0.00    -0.080 HD
ENDROOT
BRANCH   2  10
ATOM      9  O   UNL     1      32.566  -9.923 -20.187  0.00  0.00    -0.275 OA
ATOM     10  N   UNL     1      32.640  -9.281 -22.468  0.00  0.00    -0.260 N 
ATOM     11  C   UNL     1      32.685  -9.058 -21.058  0.00  0.00    +0.229 C 
BRANCH  10  12
ATOM     12  C   UNL     1      32.801  -8.134 -23.359  0.00  0.00    +0.054 C 
ATOM     13  C   UNL     1      34.069  -7.777 -23.708  0.00  0.00    +0.015 C 
ATOM     14  C   UNL     1      31.670  -7.500 -23.781  0.00  0.00    +0.015 C 
ATOM     15  C   UNL     1      34.222  -6.682 -24.559  0.00  0.00    +0.001 C 
ATOM     16  C   UNL     1      31.823  -6.404 -24.631  0.00  0.00    +0.001 C 
ATOM     17  C   UNL     1      33.098  -5.996 -25.020  0.00  0.00    +0.000 C 
ENDBRANCH  10  12
BRANCH  11  18
ATOM     18  C   UNL     1      32.853  -7.599 -20.643  0.00  0.00    +0.086 C 
ATOM     19  C   UNL     1      31.654  -7.063 -19.874  0.00  0.00    +0.010 C 
ENDBRANCH  11  18
ENDBRANCH   2  10
BRANCH   1  20
ATOM     20  C   UNL     1      34.274 -13.758 -22.367  0.00  0.00    -0.043 C 
BRANCH  20  21
ATOM     21  C   UNL     1      33.972 -15.053 -21.602  0.00  0.00    +0.112 C 
BRANCH  21  22
ATOM     22  C   UNL     1      34.340 -16.275 -22.414  0.00  0.00    +0.002 C 
ATOM     23  C   UNL     1      34.458 -17.499 -21.778  0.00  0.00    -0.002 C 
ATOM     24  C   UNL     1      34.553 -16.144 -23.776  0.00  0.00    -0.002 C 
ATOM     25  C   UNL     1      34.797 -18.626 -22.526  0.00  0.00    -0.000 C 
ATOM     26  C   UNL     1      34.892 -17.271 -24.524  0.00  0.00    -0.000 C 
ATOM     27  C   UNL     1      35.014 -18.511 -23.899  0.00  0.00    -0.000 C 
ENDBRANCH  21  22
BRANCH  21  28
ATOM     28  O   UNL     1      34.712 -15.090 -20.382  0.00  0.00    -0.382 OA
ATOM     29  H   UNL     1      35.643 -15.280 -20.574  0.00  0.00    +0.211 HD
ENDBRANCH  21  28
ENDBRANCH  20  21
ENDBRANCH   1  20
TORSDOF 7
ENDMDL
MODEL 8
REMARK VINA RESULT:      -9.0      3.099      5.593
REMARK  Name = 62279
REMARK  7 active torsions:
REMARK  status: ('A' for Active; 'I' for Inactive)
REMARK    1  A    between atoms: N_1  and  C_20
REMARK    2  A    between atoms: C_2  and  N_10
REMARK    3  A    between atoms: N_10  and  C_12
REMARK    4  A    between atoms: C_11  and  C_18
REMARK    5  A    between atoms: C_20  and  C_21
REMARK    6  A    between atoms: C_21  and  C_22
REMARK    7  A    between atoms: C_21  and  O_28
REMARK                            x       y       z     vdW  Elec       q    Type
REMARK                         _______ _______ _______ _____ _____    ______ ____
ROOT
ATOM      1  N   UNL     1      34.910 -17.687 -21.739  0.00  0.00    +0.389 N 
ATOM      2  C   UNL     1      34.356 -14.949 -22.737  0.00  0.00    +0.076 C 
ATOM      3  C   UNL     1      33.836 -16.195 -23.480  0.00  0.00    -0.002 C 
ATOM      4  C   UNL     1      34.557 -15.249 -21.249  0.00  0.00    -0.003 C 
ATOM      5  C   UNL     1      34.723 -17.417 -23.170  0.00  0.00    -0.076 C 
ATOM      6  C   UNL     1      35.410 -16.501 -21.037  0.00  0.00    -0.076 C 
ATOM      7  C   UNL     1      33.784 -15.967 -24.995  0.00  0.00    -0.000 C 
ATOM      8  H   UNL     1      35.625 -18.411 -21.658  0.00  0.00    -0.080 HD
ENDROOT
BRANCH   2  10
ATOM      9  O   UNL     1      31.905 -14.398 -21.201  0.00  0.00    -0.275 OA
ATOM     10  N   UNL     1      33.464 -13.823 -22.892  0.00  0.00    -0.260 N 
ATOM     11  C   UNL     1      32.293 -13.642 -22.095  0.00  0.00    +0.229 C 
BRANCH  10  12
ATOM     12  C   UNL     1      33.774 -12.824 -23.912  0.00  0.00    +0.054 C 
ATOM     13  C   UNL     1      33.505 -13.141 -25.210  0.00  0.00    +0.015 C 
ATOM     14  C   UNL     1      34.313 -11.643 -23.495  0.00  0.00    +0.015 C 
ATOM     15  C   UNL     1      33.803 -12.188 -26.184  0.00  0.00    +0.001 C 
ATOM     16  C   UNL     1      34.611 -10.690 -24.469  0.00  0.00    +0.001 C 
ATOM     17  C   UNL     1      34.356 -10.962 -25.813  0.00  0.00    +0.000 C 
ENDBRANCH  10  12
BRANCH  11  18
ATOM     18  C   UNL     1      31.459 -12.414 -22.448  0.00  0.00    +0.086 C 
ATOM     19  C   UNL     1      31.162 -11.536 -21.241  0.00  0.00    +0.010 C 
ENDBRANCH  11  18
ENDBRANCH   2  10
BRANCH   1  20
ATOM     20  C   UNL     1      33.711 -18.240 -21.115  0.00  0.00    -0.043 C 
BRANCH  20  21
ATOM     21  C   UNL     1      33.621 -19.753 -21.352  0.00  0.00    +0.112 C 
BRANCH  21  22
ATOM     22  C   UNL     1      34.457 -20.522 -20.353  0.00  0.00    +0.002 C 
ATOM     23  C   UNL     1      33.833 -21.392 -19.476  0.00  0.00    -0.002 C 
ATOM     24  C   UNL     1      35.830 -20.339 -20.337  0.00  0.00    -0.002 C 
ATOM     25  C   UNL     1      34.603 -22.101 -18.556  0.00  0.00    -0.000 C 
ATOM     26  C   UNL     1      36.600 -21.048 -19.416  0.00  0.00    -0.000 C 
ATOM     27  C   UNL     1      35.987 -21.928 -18.525  0.00  0.00    -0.000 C 
ENDBRANCH  21  22
BRANCH  21  28
ATOM     28  O   UNL     1      32.268 -20.193 -21.232  0.00  0.00    -0.382 OA
ATOM     29  H   UNL     1      32.102 -20.905 -21.869  0.00  0.00    +0.211 HD
ENDBRANCH  21  28
ENDBRANCH  20  21
ENDBRANCH   1  20
TORSDOF 7
ENDMDL
MODEL 9
REMARK VINA RESULT:      -8.7      3.321      5.942
REMARK  Name = 62279
REMARK  7 active torsions:
REMARK  status: ('A' for Active; 'I' for Inactive)
REMARK    1  A    between atoms: N_1  and  C_20
REMARK    2  A    between atoms: C_2  and  N_10
REMARK    3  A    between atoms: N_10  and  C_12
REMARK    4  A    between atoms: C_11  and  C_18
REMARK    5  A    between atoms: C_20  and  C_21
REMARK    6  A    between atoms: C_21  and  C_22
REMARK    7  A    between atoms: C_21  and  O_28
REMARK                            x       y       z     vdW  Elec       q    Type
REMARK                         _______ _______ _______ _____ _____    ______ ____
ROOT
ATOM      1  N   UNL     1      34.990 -17.832 -21.355  0.00  0.00    +0.389 N 
ATOM      2  C   UNL     1      34.657 -15.712 -23.403  0.00  0.00    +0.076 C 
ATOM      3  C   UNL     1      34.480 -17.203 -23.754  0.00  0.00    -0.002 C 
ATOM      4  C   UNL     1      34.366 -15.466 -21.920  0.00  0.00    -0.003 C 
ATOM      5  C   UNL     1      35.276 -18.086 -22.773  0.00  0.00    -0.076 C 
ATOM      6  C   UNL     1      35.164 -16.415 -21.025  0.00  0.00    -0.076 C 
ATOM      7  C   UNL     1      34.923 -17.500 -25.191  0.00  0.00    -0.000 C 
ATOM      8  H   UNL     1      35.674 -18.357 -20.810  0.00  0.00    -0.080 HD
ENDROOT
BRANCH   2  10
ATOM      9  O   UNL     1      33.790 -16.200 -26.176  0.00  0.00    -0.275 OA
ATOM     10  N   UNL     1      33.809 -14.869 -24.214  0.00  0.00    -0.260 N 
ATOM     11  C   UNL     1      33.442 -15.192 -25.555  0.00  0.00    +0.229 C 
BRANCH  10  12
ATOM     12  C   UNL     1      33.304 -13.627 -23.634  0.00  0.00    +0.054 C 
ATOM     13  C   UNL     1      33.875 -12.459 -24.044  0.00  0.00    +0.015 C 
ATOM     14  C   UNL     1      32.295 -13.721 -22.721  0.00  0.00    +0.015 C 
ATOM     15  C   UNL     1      33.394 -11.273 -23.488  0.00  0.00    +0.001 C 
ATOM     16  C   UNL     1      31.814 -12.535 -22.166  0.00  0.00    +0.001 C 
ATOM     17  C   UNL     1      32.363 -11.312 -22.550  0.00  0.00    +0.000 C 
ENDBRANCH  10  12
BRANCH  11  18
ATOM     18  C   UNL     1      32.579 -14.147 -26.256  0.00  0.00    +0.086 C 
ATOM     19  C   UNL     1      33.322 -13.416 -27.365  0.00  0.00    +0.010 C 
ENDBRANCH  11  18
ENDBRANCH   2  10
BRANCH   1  20
ATOM     20  C   UNL     1      33.682 -18.343 -20.951  0.00  0.00    -0.043 C 
BRANCH  20  21
ATOM     21  C   UNL     1      33.572 -19.846 -21.235  0.00  0.00    +0.112 C 
BRANCH  21  22
ATOM     22  C   UNL     1      34.329 -20.660 -20.209  0.00  0.00    +0.002 C 
ATOM     23  C   UNL     1      33.629 -21.520 -19.379  0.00  0.00    -0.002 C 
ATOM     24  C   UNL     1      35.704 -20.529 -20.121  0.00  0.00    -0.002 C 
ATOM     25  C   UNL     1      34.326 -22.271 -18.434  0.00  0.00    -0.000 C 
ATOM     26  C   UNL     1      36.401 -21.280 -19.176  0.00  0.00    -0.000 C 
ATOM     27  C   UNL     1      35.712 -22.151 -18.332  0.00  0.00    -0.000 C 
ENDBRANCH  21  22
BRANCH  21  28
ATOM     28  O   UNL     1      32.204 -20.255 -21.208  0.00  0.00    -0.382 OA
ATOM     29  H   UNL     1      31.764 -19.965 -22.022  0.00  0.00    +0.211 HD
ENDBRANCH  21  28
ENDBRANCH  20  21
ENDBRANCH   1  20
TORSDOF 7
ENDMDL
