MODEL 1
REMARK VINA RESULT:      -7.3      0.000      0.000
REMARK  Name = 448294
REMARK  10 active torsions:
REMARK  status: ('A' for Active; 'I' for Inactive)
REMARK    1  A    between atoms: C_2  and  O_7
REMARK    2  A    between atoms: C_4  and  O_9
REMARK    3  A    between atoms: C_5  and  C_18
REMARK    4  A    between atoms: C_6  and  O_11
REMARK    5  A    between atoms: O_11  and  C_12
REMARK    6  A    between atoms: C_12  and  C_13
REMARK    7  A    between atoms: C_13  and  C_14
REMARK    8  A    between atoms: C_14  and  C_15
REMARK    9  A    between atoms: C_15  and  C_16
REMARK   10  A    between atoms: C_18  and  O_19
REMARK                            x       y       z     vdW  Elec       q    Type
REMARK                         _______ _______ _______ _____ _____    ______ ____
ROOT
ATOM      1  O   UNL     1      36.616 -23.534 -13.738  0.00  0.00    -0.326 OA
ATOM      2  C   UNL     1      38.004 -25.077 -12.468  0.00  0.00    +0.143 C 
ATOM      3  C   UNL     1      37.847 -26.120 -13.571  0.00  0.00    +0.066 C 
ATOM      4  C   UNL     1      37.510 -25.463 -14.910  0.00  0.00    +0.169 C 
ATOM      5  C   UNL     1      36.796 -24.133 -12.451  0.00  0.00    +0.174 C 
ATOM      6  C   UNL     1      36.343 -24.489 -14.762  0.00  0.00    +0.263 C 
ENDROOT
BRANCH   2   7
ATOM      7  O   UNL     1      39.195 -24.327 -12.698  0.00  0.00    -0.382 OA
ATOM      8  H   UNL     1      39.907 -24.926 -12.972  0.00  0.00    +0.210 HD
ENDBRANCH   2   7
BRANCH   4   9
ATOM      9  O   UNL     1      37.160 -26.471 -15.854  0.00  0.00    -0.379 OA
ATOM     10  H   UNL     1      36.317 -26.876 -15.597  0.00  0.00    +0.211 HD
ENDBRANCH   4   9
BRANCH   6  11
ATOM     11  O   UNL     1      36.167 -23.820 -16.010  0.00  0.00    -0.329 OA
BRANCH  11  12
ATOM     12  C   UNL     1      36.563 -22.460 -15.928  0.00  0.00    +0.145 C 
BRANCH  12  13
ATOM     13  C   UNL     1      36.870 -21.950 -17.329  0.00  0.00    +0.032 C 
BRANCH  13  14
ATOM     14  C   UNL     1      35.634 -21.996 -18.227  0.00  0.00    +0.003 C 
BRANCH  14  15
ATOM     15  C   UNL     1      35.907 -21.538 -19.662  0.00  0.00    +0.000 C 
BRANCH  15  16
ATOM     16  C   UNL     1      34.862 -20.557 -20.196  0.00  0.00    +0.000 C 
ATOM     17  C   UNL     1      33.451 -21.015 -19.865  0.00  0.00    +0.000 C 
ENDBRANCH  15  16
ENDBRANCH  14  15
ENDBRANCH  13  14
ENDBRANCH  12  13
ENDBRANCH  11  12
ENDBRANCH   6  11
BRANCH   5  18
ATOM     18  C   UNL     1      36.958 -23.003 -11.440  0.00  0.00    +0.169 C 
BRANCH  18  19
ATOM     19  O   UNL     1      37.904 -22.076 -11.946  0.00  0.00    -0.379 OA
ATOM     20  H   UNL     1      38.506 -22.530 -12.556  0.00  0.00    +0.211 HD
ENDBRANCH  18  19
ENDBRANCH   5  18
TORSDOF 10
ENDMDL
MODEL 2
REMARK VINA RESULT:      -7.3      1.707      2.865
REMARK  Name = 448294
REMARK  10 active torsions:
REMARK  status: ('A' for Active; 'I' for Inactive)
REMARK    1  A    between atoms: C_2  and  O_7
REMARK    2  A    between atoms: C_4  and  O_9
REMARK    3  A    between atoms: C_5  and  C_18
REMARK    4  A    between atoms: C_6  and  O_11
REMARK    5  A    between atoms: O_11  and  C_12
REMARK    6  A    between atoms: C_12  and  C_13
REMARK    7  A    between atoms: C_13  and  C_14
REMARK    8  A    between atoms: C_14  and  C_15
REMARK    9  A    between atoms: C_15  and  C_16
REMARK   10  A    between atoms: C_18  and  O_19
REMARK                            x       y       z     vdW  Elec       q    Type
REMARK                         _______ _______ _______ _____ _____    ______ ____
ROOT
ATOM      1  O   UNL     1      38.648 -24.029 -14.987  0.00  0.00    -0.326 OA
ATOM      2  C   UNL     1      37.561 -26.128 -14.405  0.00  0.00    +0.143 C 
ATOM      3  C   UNL     1      36.281 -25.367 -14.069  0.00  0.00    +0.066 C 
ATOM      4  C   UNL     1      36.227 -24.025 -14.798  0.00  0.00    +0.169 C 
ATOM      5  C   UNL     1      38.785 -25.225 -14.212  0.00  0.00    +0.174 C 
ATOM      6  C   UNL     1      37.523 -23.241 -14.599  0.00  0.00    +0.263 C 
ENDROOT
BRANCH   2   7
ATOM      7  O   UNL     1      37.501 -26.569 -15.760  0.00  0.00    -0.382 OA
ATOM      8  H   UNL     1      36.639 -26.336 -16.138  0.00  0.00    +0.210 HD
ENDBRANCH   2   7
BRANCH   4   9
ATOM      9  O   UNL     1      35.136 -23.259 -14.294  0.00  0.00    -0.379 OA
ATOM     10  H   UNL     1      34.426 -23.234 -14.955  0.00  0.00    +0.211 HD
ENDBRANCH   4   9
BRANCH   6  11
ATOM     11  O   UNL     1      37.456 -22.067 -15.407  0.00  0.00    -0.329 OA
BRANCH  11  12
ATOM     12  C   UNL     1      37.631 -22.374 -16.781  0.00  0.00    +0.145 C 
BRANCH  12  13
ATOM     13  C   UNL     1      36.801 -21.406 -17.612  0.00  0.00    +0.032 C 
BRANCH  13  14
ATOM     14  C   UNL     1      35.564 -22.086 -18.198  0.00  0.00    +0.003 C 
BRANCH  14  15
ATOM     15  C   UNL     1      35.048 -21.416 -19.474  0.00  0.00    +0.000 C 
BRANCH  15  16
ATOM     16  C   UNL     1      33.522 -21.391 -19.573  0.00  0.00    +0.000 C 
ATOM     17  C   UNL     1      33.040 -20.222 -20.418  0.00  0.00    +0.000 C 
ENDBRANCH  15  16
ENDBRANCH  14  15
ENDBRANCH  13  14
ENDBRANCH  12  13
ENDBRANCH  11  12
ENDBRANCH   6  11
BRANCH   5  18
ATOM     18  C   UNL     1      40.080 -25.903 -14.644  0.00  0.00    +0.169 C 
BRANCH  18  19
ATOM     19  O   UNL     1      40.228 -25.743 -16.044  0.00  0.00    -0.379 OA
ATOM     20  H   UNL     1      40.976 -26.277 -16.353  0.00  0.00    +0.211 HD
ENDBRANCH  18  19
ENDBRANCH   5  18
TORSDOF 10
ENDMDL
MODEL 3
REMARK VINA RESULT:      -7.2      1.403      1.508
REMARK  Name = 448294
REMARK  10 active torsions:
REMARK  status: ('A' for Active; 'I' for Inactive)
REMARK    1  A    between atoms: C_2  and  O_7
REMARK    2  A    between atoms: C_4  and  O_9
REMARK    3  A    between atoms: C_5  and  C_18
REMARK    4  A    between atoms: C_6  and  O_11
REMARK    5  A    between atoms: O_11  and  C_12
REMARK    6  A    between atoms: C_12  and  C_13
REMARK    7  A    between atoms: C_13  and  C_14
REMARK    8  A    between atoms: C_14  and  C_15
REMARK    9  A    between atoms: C_15  and  C_16
REMARK   10  A    between atoms: C_18  and  O_19
REMARK                            x       y       z     vdW  Elec       q    Type
REMARK                         _______ _______ _______ _____ _____    ______ ____
ROOT
ATOM      1  O   UNL     1      36.514 -23.765 -13.744  0.00  0.00    -0.326 OA
ATOM      2  C   UNL     1      37.394 -25.511 -12.294  0.00  0.00    +0.143 C 
ATOM      3  C   UNL     1      38.285 -26.002 -13.432  0.00  0.00    +0.066 C 
ATOM      4  C   UNL     1      38.548 -24.890 -14.448  0.00  0.00    +0.169 C 
ATOM      5  C   UNL     1      36.143 -24.823 -12.854  0.00  0.00    +0.174 C 
ATOM      6  C   UNL     1      37.242 -24.226 -14.881  0.00  0.00    +0.263 C 
ENDROOT
BRANCH   2   7
ATOM      7  O   UNL     1      38.128 -24.589 -11.489  0.00  0.00    -0.382 OA
ATOM      8  H   UNL     1      37.600 -23.787 -11.355  0.00  0.00    +0.210 HD
ENDBRANCH   2   7
BRANCH   4   9
ATOM      9  O   UNL     1      39.193 -25.442 -15.592  0.00  0.00    -0.379 OA
ATOM     10  H   UNL     1      38.725 -26.244 -15.873  0.00  0.00    +0.211 HD
ENDBRANCH   4   9
BRANCH   6  11
ATOM     11  O   UNL     1      37.569 -23.121 -15.723  0.00  0.00    -0.329 OA
BRANCH  11  12
ATOM     12  C   UNL     1      36.412 -22.585 -16.346  0.00  0.00    +0.145 C 
BRANCH  12  13
ATOM     13  C   UNL     1      36.840 -21.748 -17.544  0.00  0.00    +0.032 C 
BRANCH  13  14
ATOM     14  C   UNL     1      35.811 -21.816 -18.672  0.00  0.00    +0.003 C 
BRANCH  14  15
ATOM     15  C   UNL     1      36.310 -21.214 -19.988  0.00  0.00    +0.000 C 
BRANCH  15  16
ATOM     16  C   UNL     1      35.333 -20.213 -20.608  0.00  0.00    +0.000 C 
ATOM     17  C   UNL     1      33.896 -20.536 -20.231  0.00  0.00    +0.000 C 
ENDBRANCH  15  16
ENDBRANCH  14  15
ENDBRANCH  13  14
ENDBRANCH  12  13
ENDBRANCH  11  12
ENDBRANCH   6  11
BRANCH   5  18
ATOM     18  C   UNL     1      35.277 -24.214 -11.758  0.00  0.00    +0.169 C 
BRANCH  18  19
ATOM     19  O   UNL     1      35.322 -25.062 -10.623  0.00  0.00    -0.379 OA
ATOM     20  H   UNL     1      36.136 -25.588 -10.645  0.00  0.00    +0.211 HD
ENDBRANCH  18  19
ENDBRANCH   5  18
TORSDOF 10
ENDMDL
MODEL 4
REMARK VINA RESULT:      -7.1      7.685     11.615
REMARK  Name = 448294
REMARK  10 active torsions:
REMARK  status: ('A' for Active; 'I' for Inactive)
REMARK    1  A    between atoms: C_2  and  O_7
REMARK    2  A    between atoms: C_4  and  O_9
REMARK    3  A    between atoms: C_5  and  C_18
REMARK    4  A    between atoms: C_6  and  O_11
REMARK    5  A    between atoms: O_11  and  C_12
REMARK    6  A    between atoms: C_12  and  C_13
REMARK    7  A    between atoms: C_13  and  C_14
REMARK    8  A    between atoms: C_14  and  C_15
REMARK    9  A    between atoms: C_15  and  C_16
REMARK   10  A    between atoms: C_18  and  O_19
REMARK                            x       y       z     vdW  Elec       q    Type
REMARK                         _______ _______ _______ _____ _____    ______ ____
ROOT
ATOM      1  O   UNL     1      34.473 -15.952 -22.701  0.00  0.00    -0.326 OA
ATOM      2  C   UNL     1      33.314 -13.834 -23.014  0.00  0.00    +0.143 C 
ATOM      3  C   UNL     1      33.403 -14.014 -24.527  0.00  0.00    +0.066 C 
ATOM      4  C   UNL     1      33.556 -15.488 -24.902  0.00  0.00    +0.169 C 
ATOM      5  C   UNL     1      34.466 -14.572 -22.321  0.00  0.00    +0.174 C 
ATOM      6  C   UNL     1      34.681 -16.142 -24.100  0.00  0.00    +0.263 C 
ENDROOT
BRANCH   2   7
ATOM      7  O   UNL     1      32.068 -14.353 -22.553  0.00  0.00    -0.382 OA
ATOM      8  H   UNL     1      31.762 -15.046 -23.158  0.00  0.00    +0.210 HD
ENDBRANCH   2   7
BRANCH   4   9
ATOM      9  O   UNL     1      33.852 -15.592 -26.292  0.00  0.00    -0.379 OA
ATOM     10  H   UNL     1      33.035 -15.491 -26.805  0.00  0.00    +0.211 HD
ENDBRANCH   4   9
BRANCH   6  11
ATOM     11  O   UNL     1      34.684 -17.536 -24.402  0.00  0.00    -0.329 OA
BRANCH  11  12
ATOM     12  C   UNL     1      35.453 -18.268 -23.460  0.00  0.00    +0.145 C 
BRANCH  12  13
ATOM     13  C   UNL     1      34.585 -19.365 -22.860  0.00  0.00    +0.032 C 
BRANCH  13  14
ATOM     14  C   UNL     1      34.459 -19.215 -21.345  0.00  0.00    +0.003 C 
BRANCH  14  15
ATOM     15  C   UNL     1      33.147 -19.772 -20.785  0.00  0.00    +0.000 C 
BRANCH  15  16
ATOM     16  C   UNL     1      33.342 -20.977 -19.863  0.00  0.00    +0.000 C 
ATOM     17  C   UNL     1      34.817 -21.284 -19.656  0.00  0.00    +0.000 C 
ENDBRANCH  15  16
ENDBRANCH  14  15
ENDBRANCH  13  14
ENDBRANCH  12  13
ENDBRANCH  11  12
ENDBRANCH   6  11
BRANCH   5  18
ATOM     18  C   UNL     1      34.358 -14.519 -20.801  0.00  0.00    +0.169 C 
BRANCH  18  19
ATOM     19  O   UNL     1      34.941 -15.694 -20.265  0.00  0.00    -0.379 OA
ATOM     20  H   UNL     1      35.639 -15.451 -19.637  0.00  0.00    +0.211 HD
ENDBRANCH  18  19
ENDBRANCH   5  18
TORSDOF 10
ENDMDL
MODEL 5
REMARK VINA RESULT:      -7.0      8.011     12.081
REMARK  Name = 448294
REMARK  10 active torsions:
REMARK  status: ('A' for Active; 'I' for Inactive)
REMARK    1  A    between atoms: C_2  and  O_7
REMARK    2  A    between atoms: C_4  and  O_9
REMARK    3  A    between atoms: C_5  and  C_18
REMARK    4  A    between atoms: C_6  and  O_11
REMARK    5  A    between atoms: O_11  and  C_12
REMARK    6  A    between atoms: C_12  and  C_13
REMARK    7  A    between atoms: C_13  and  C_14
REMARK    8  A    between atoms: C_14  and  C_15
REMARK    9  A    between atoms: C_15  and  C_16
REMARK   10  A    between atoms: C_18  and  O_19
REMARK                            x       y       z     vdW  Elec       q    Type
REMARK                         _______ _______ _______ _____ _____    ______ ____
ROOT
ATOM      1  O   UNL     1      34.353 -15.469 -24.256  0.00  0.00    -0.326 OA
ATOM      2  C   UNL     1      33.099 -13.562 -23.409  0.00  0.00    +0.143 C 
ATOM      3  C   UNL     1      33.278 -14.082 -21.985  0.00  0.00    +0.066 C 
ATOM      4  C   UNL     1      34.499 -14.995 -21.878  0.00  0.00    +0.169 C 
ATOM      5  C   UNL     1      33.141 -14.723 -24.410  0.00  0.00    +0.174 C 
ATOM      6  C   UNL     1      34.476 -16.068 -22.967  0.00  0.00    +0.263 C 
ENDROOT
BRANCH   2   7
ATOM      7  O   UNL     1      34.144 -12.637 -23.704  0.00  0.00    -0.382 OA
ATOM      8  H   UNL     1      33.888 -12.093 -24.464  0.00  0.00    +0.210 HD
ENDBRANCH   2   7
BRANCH   4   9
ATOM      9  O   UNL     1      34.505 -15.627 -20.601  0.00  0.00    -0.379 OA
ATOM     10  H   UNL     1      35.094 -16.398 -20.624  0.00  0.00    +0.211 HD
ENDBRANCH   4   9
BRANCH   6  11
ATOM     11  O   UNL     1      35.700 -16.798 -22.890  0.00  0.00    -0.329 OA
BRANCH  11  12
ATOM     12  C   UNL     1      35.465 -18.196 -22.823  0.00  0.00    +0.145 C 
BRANCH  12  13
ATOM     13  C   UNL     1      36.143 -18.751 -21.578  0.00  0.00    +0.032 C 
BRANCH  13  14
ATOM     14  C   UNL     1      35.214 -19.683 -20.802  0.00  0.00    +0.003 C 
BRANCH  14  15
ATOM     15  C   UNL     1      33.729 -19.400 -21.040  0.00  0.00    +0.000 C 
BRANCH  15  16
ATOM     16  C   UNL     1      32.799 -20.321 -20.248  0.00  0.00    +0.000 C 
ATOM     17  C   UNL     1      33.576 -21.428 -19.554  0.00  0.00    +0.000 C 
ENDBRANCH  15  16
ENDBRANCH  14  15
ENDBRANCH  13  14
ENDBRANCH  12  13
ENDBRANCH  11  12
ENDBRANCH   6  11
BRANCH   5  18
ATOM     18  C   UNL     1      33.080 -14.244 -25.856  0.00  0.00    +0.169 C 
BRANCH  18  19
ATOM     19  O   UNL     1      33.499 -15.302 -26.700  0.00  0.00    -0.379 OA
ATOM     20  H   UNL     1      33.407 -16.146 -26.230  0.00  0.00    +0.211 HD
ENDBRANCH  18  19
ENDBRANCH   5  18
TORSDOF 10
ENDMDL
MODEL 6
REMARK VINA RESULT:      -6.9      1.752      2.949
REMARK  Name = 448294
REMARK  10 active torsions:
REMARK  status: ('A' for Active; 'I' for Inactive)
REMARK    1  A    between atoms: C_2  and  O_7
REMARK    2  A    between atoms: C_4  and  O_9
REMARK    3  A    between atoms: C_5  and  C_18
REMARK    4  A    between atoms: C_6  and  O_11
REMARK    5  A    between atoms: O_11  and  C_12
REMARK    6  A    between atoms: C_12  and  C_13
REMARK    7  A    between atoms: C_13  and  C_14
REMARK    8  A    between atoms: C_14  and  C_15
REMARK    9  A    between atoms: C_15  and  C_16
REMARK   10  A    between atoms: C_18  and  O_19
REMARK                            x       y       z     vdW  Elec       q    Type
REMARK                         _______ _______ _______ _____ _____    ______ ____
ROOT
ATOM      1  O   UNL     1      36.515 -24.385 -14.745  0.00  0.00    -0.326 OA
ATOM      2  C   UNL     1      37.185 -25.428 -12.650  0.00  0.00    +0.143 C 
ATOM      3  C   UNL     1      36.051 -24.702 -11.931  0.00  0.00    +0.066 C 
ATOM      4  C   UNL     1      34.935 -24.318 -12.902  0.00  0.00    +0.169 C 
ATOM      5  C   UNL     1      37.631 -24.633 -13.883  0.00  0.00    +0.174 C 
ATOM      6  C   UNL     1      35.499 -23.598 -14.126  0.00  0.00    +0.263 C 
ENDROOT
BRANCH   2   7
ATOM      7  O   UNL     1      36.732 -26.720 -13.052  0.00  0.00    -0.382 OA
ATOM      8  H   UNL     1      35.786 -26.806 -12.859  0.00  0.00    +0.210 HD
ENDBRANCH   2   7
BRANCH   4   9
ATOM      9  O   UNL     1      34.010 -23.460 -12.241  0.00  0.00    -0.379 OA
ATOM     10  H   UNL     1      33.233 -23.972 -11.967  0.00  0.00    +0.211 HD
ENDBRANCH   4   9
BRANCH   6  11
ATOM     11  O   UNL     1      34.427 -23.386 -15.044  0.00  0.00    -0.329 OA
BRANCH  11  12
ATOM     12  C   UNL     1      34.912 -23.080 -16.342  0.00  0.00    +0.145 C 
BRANCH  12  13
ATOM     13  C   UNL     1      33.756 -23.155 -17.331  0.00  0.00    +0.032 C 
BRANCH  13  14
ATOM     14  C   UNL     1      34.098 -22.460 -18.648  0.00  0.00    +0.003 C 
BRANCH  14  15
ATOM     15  C   UNL     1      35.524 -21.904 -18.691  0.00  0.00    +0.000 C 
BRANCH  15  16
ATOM     16  C   UNL     1      35.863 -21.201 -20.006  0.00  0.00    +0.000 C 
ATOM     17  C   UNL     1      34.716 -20.320 -20.475  0.00  0.00    +0.000 C 
ENDBRANCH  15  16
ENDBRANCH  14  15
ENDBRANCH  13  14
ENDBRANCH  12  13
ENDBRANCH  11  12
ENDBRANCH   6  11
BRANCH   5  18
ATOM     18  C   UNL     1      38.684 -25.372 -14.700  0.00  0.00    +0.169 C 
BRANCH  18  19
ATOM     19  O   UNL     1      38.027 -26.282 -15.566  0.00  0.00    -0.379 OA
ATOM     20  H   UNL     1      38.571 -26.425 -16.356  0.00  0.00    +0.211 HD
ENDBRANCH  18  19
ENDBRANCH   5  18
TORSDOF 10
ENDMDL
MODEL 7
REMARK VINA RESULT:      -6.9      4.053      5.458
REMARK  Name = 448294
REMARK  10 active torsions:
REMARK  status: ('A' for Active; 'I' for Inactive)
REMARK    1  A    between atoms: C_2  and  O_7
REMARK    2  A    between atoms: C_4  and  O_9
REMARK    3  A    between atoms: C_5  and  C_18
REMARK    4  A    between atoms: C_6  and  O_11
REMARK    5  A    between atoms: O_11  and  C_12
REMARK    6  A    between atoms: C_12  and  C_13
REMARK    7  A    between atoms: C_13  and  C_14
REMARK    8  A    between atoms: C_14  and  C_15
REMARK    9  A    between atoms: C_15  and  C_16
REMARK   10  A    between atoms: C_18  and  O_19
REMARK                            x       y       z     vdW  Elec       q    Type
REMARK                         _______ _______ _______ _____ _____    ______ ____
ROOT
ATOM      1  O   UNL     1      32.704 -23.531 -15.691  0.00  0.00    -0.326 OA
ATOM      2  C   UNL     1      31.022 -24.088 -14.022  0.00  0.00    +0.143 C 
ATOM      3  C   UNL     1      29.968 -23.351 -14.844  0.00  0.00    +0.066 C 
ATOM      4  C   UNL     1      30.372 -23.268 -16.316  0.00  0.00    +0.169 C 
ATOM      5  C   UNL     1      32.413 -23.502 -14.289  0.00  0.00    +0.174 C 
ATOM      6  C   UNL     1      31.799 -22.743 -16.462  0.00  0.00    +0.263 C 
ENDROOT
BRANCH   2   7
ATOM      7  O   UNL     1      31.009 -25.470 -14.375  0.00  0.00    -0.382 OA
ATOM      8  H   UNL     1      31.910 -25.758 -14.588  0.00  0.00    +0.210 HD
ENDBRANCH   2   7
BRANCH   4   9
ATOM      9  O   UNL     1      29.480 -22.393 -17.000  0.00  0.00    -0.379 OA
ATOM     10  H   UNL     1      29.431 -21.547 -16.528  0.00  0.00    +0.211 HD
ENDBRANCH   4   9
BRANCH   6  11
ATOM     11  O   UNL     1      32.155 -22.814 -17.843  0.00  0.00    -0.329 OA
BRANCH  11  12
ATOM     12  C   UNL     1      33.530 -23.124 -18.007  0.00  0.00    +0.145 C 
BRANCH  12  13
ATOM     13  C   UNL     1      33.957 -22.738 -19.417  0.00  0.00    +0.032 C 
BRANCH  13  14
ATOM     14  C   UNL     1      34.257 -21.244 -19.523  0.00  0.00    +0.003 C 
BRANCH  14  15
ATOM     15  C   UNL     1      33.177 -20.457 -20.270  0.00  0.00    +0.000 C 
BRANCH  15  16
ATOM     16  C   UNL     1      33.736 -19.325 -21.133  0.00  0.00    +0.000 C 
ATOM     17  C   UNL     1      35.254 -19.378 -21.202  0.00  0.00    +0.000 C 
ENDBRANCH  15  16
ENDBRANCH  14  15
ENDBRANCH  13  14
ENDBRANCH  12  13
ENDBRANCH  11  12
ENDBRANCH   6  11
BRANCH   5  18
ATOM     18  C   UNL     1      33.516 -24.279 -13.579  0.00  0.00    +0.169 C 
BRANCH  18  19
ATOM     19  O   UNL     1      33.960 -23.519 -12.468  0.00  0.00    -0.379 OA
ATOM     20  H   UNL     1      33.580 -23.885 -11.654  0.00  0.00    +0.211 HD
ENDBRANCH  18  19
ENDBRANCH   5  18
TORSDOF 10
ENDMDL
MODEL 8
REMARK VINA RESULT:      -6.8      2.552      2.878
REMARK  Name = 448294
REMARK  10 active torsions:
REMARK  status: ('A' for Active; 'I' for Inactive)
REMARK    1  A    between atoms: C_2  and  O_7
REMARK    2  A    between atoms: C_4  and  O_9
REMARK    3  A    between atoms: C_5  and  C_18
REMARK    4  A    between atoms: C_6  and  O_11
REMARK    5  A    between atoms: O_11  and  C_12
REMARK    6  A    between atoms: C_12  and  C_13
REMARK    7  A    between atoms: C_13  and  C_14
REMARK    8  A    between atoms: C_14  and  C_15
REMARK    9  A    between atoms: C_15  and  C_16
REMARK   10  A    between atoms: C_18  and  O_19
REMARK                            x       y       z     vdW  Elec       q    Type
REMARK                         _______ _______ _______ _____ _____    ______ ____
ROOT
ATOM      1  O   UNL     1      35.912 -24.635 -13.337  0.00  0.00    -0.326 OA
ATOM      2  C   UNL     1      37.963 -24.573 -12.027  0.00  0.00    +0.143 C 
ATOM      3  C   UNL     1      38.710 -25.251 -13.172  0.00  0.00    +0.066 C 
ATOM      4  C   UNL     1      38.005 -25.018 -14.508  0.00  0.00    +0.169 C 
ATOM      5  C   UNL     1      36.478 -24.952 -12.061  0.00  0.00    +0.174 C 
ATOM      6  C   UNL     1      36.518 -25.357 -14.408  0.00  0.00    +0.263 C 
ENDROOT
BRANCH   2   7
ATOM      7  O   UNL     1      38.098 -23.158 -12.151  0.00  0.00    -0.382 OA
ATOM      8  H   UNL     1      37.696 -22.867 -12.983  0.00  0.00    +0.210 HD
ENDBRANCH   2   7
BRANCH   4   9
ATOM      9  O   UNL     1      38.604 -25.838 -15.507  0.00  0.00    -0.379 OA
ATOM     10  H   UNL     1      39.539 -25.598 -15.604  0.00  0.00    +0.211 HD
ENDBRANCH   4   9
BRANCH   6  11
ATOM     11  O   UNL     1      35.900 -24.995 -15.642  0.00  0.00    -0.329 OA
BRANCH  11  12
ATOM     12  C   UNL     1      35.856 -23.586 -15.805  0.00  0.00    +0.145 C 
BRANCH  12  13
ATOM     13  C   UNL     1      34.404 -23.129 -15.754  0.00  0.00    +0.032 C 
BRANCH  13  14
ATOM     14  C   UNL     1      33.750 -23.181 -17.133  0.00  0.00    +0.003 C 
BRANCH  14  15
ATOM     15  C   UNL     1      32.226 -23.045 -17.091  0.00  0.00    +0.000 C 
BRANCH  15  16
ATOM     16  C   UNL     1      31.640 -23.200 -15.686  0.00  0.00    +0.000 C 
ATOM     17  C   UNL     1      30.273 -23.865 -15.726  0.00  0.00    +0.000 C 
ENDBRANCH  15  16
ENDBRANCH  14  15
ENDBRANCH  13  14
ENDBRANCH  12  13
ENDBRANCH  11  12
ENDBRANCH   6  11
BRANCH   5  18
ATOM     18  C   UNL     1      35.666 -24.211 -11.005  0.00  0.00    +0.169 C 
BRANCH  18  19
ATOM     19  O   UNL     1      36.454 -24.085  -9.834  0.00  0.00    -0.379 OA
ATOM     20  H   UNL     1      37.393 -24.065 -10.077  0.00  0.00    +0.211 HD
ENDBRANCH  18  19
ENDBRANCH   5  18
TORSDOF 10
ENDMDL
MODEL 9
REMARK VINA RESULT:      -6.7     10.100     13.554
REMARK  Name = 448294
REMARK  10 active torsions:
REMARK  status: ('A' for Active; 'I' for Inactive)
REMARK    1  A    between atoms: C_2  and  O_7
REMARK    2  A    between atoms: C_4  and  O_9
REMARK    3  A    between atoms: C_5  and  C_18
REMARK    4  A    between atoms: C_6  and  O_11
REMARK    5  A    between atoms: O_11  and  C_12
REMARK    6  A    between atoms: C_12  and  C_13
REMARK    7  A    between atoms: C_13  and  C_14
REMARK    8  A    between atoms: C_14  and  C_15
REMARK    9  A    between atoms: C_15  and  C_16
REMARK   10  A    between atoms: C_18  and  O_19
REMARK                            x       y       z     vdW  Elec       q    Type
REMARK                         _______ _______ _______ _____ _____    ______ ____
ROOT
ATOM      1  O   UNL     1      33.944 -14.721 -23.031  0.00  0.00    -0.326 OA
ATOM      2  C   UNL     1      34.724 -17.027 -23.051  0.00  0.00    +0.143 C 
ATOM      3  C   UNL     1      34.184 -17.193 -24.469  0.00  0.00    +0.066 C 
ATOM      4  C   UNL     1      34.072 -15.845 -25.180  0.00  0.00    +0.169 C 
ATOM      5  C   UNL     1      33.929 -15.952 -22.300  0.00  0.00    +0.174 C 
ATOM      6  C   UNL     1      33.329 -14.829 -24.314  0.00  0.00    +0.263 C 
ENDROOT
BRANCH   2   7
ATOM      7  O   UNL     1      36.098 -16.650 -23.114  0.00  0.00    -0.382 OA
ATOM      8  H   UNL     1      36.346 -16.192 -22.296  0.00  0.00    +0.210 HD
ENDBRANCH   2   7
BRANCH   4   9
ATOM      9  O   UNL     1      33.367 -16.016 -26.407  0.00  0.00    -0.379 OA
ATOM     10  H   UNL     1      32.880 -15.204 -26.616  0.00  0.00    +0.211 HD
ENDBRANCH   4   9
BRANCH   6  11
ATOM     11  O   UNL     1      33.374 -13.567 -24.978  0.00  0.00    -0.329 OA
BRANCH  11  12
ATOM     12  C   UNL     1      33.711 -12.522 -24.079  0.00  0.00    +0.145 C 
BRANCH  12  13
ATOM     13  C   UNL     1      34.070 -11.278 -24.881  0.00  0.00    +0.032 C 
BRANCH  13  14
ATOM     14  C   UNL     1      33.853 -10.004 -24.067  0.00  0.00    +0.003 C 
BRANCH  14  15
ATOM     15  C   UNL     1      35.004  -9.001 -24.186  0.00  0.00    +0.000 C 
BRANCH  15  16
ATOM     16  C   UNL     1      34.723  -7.667 -23.494  0.00  0.00    +0.000 C 
ATOM     17  C   UNL     1      33.983  -6.710 -24.416  0.00  0.00    +0.000 C 
ENDBRANCH  15  16
ENDBRANCH  14  15
ENDBRANCH  13  14
ENDBRANCH  12  13
ENDBRANCH  11  12
ENDBRANCH   6  11
BRANCH   5  18
ATOM     18  C   UNL     1      34.503 -15.667 -20.917  0.00  0.00    +0.169 C 
BRANCH  18  19
ATOM     19  O   UNL     1      35.202 -16.817 -20.472  0.00  0.00    -0.379 OA
ATOM     20  H   UNL     1      35.681 -16.607 -19.655  0.00  0.00    +0.211 HD
ENDBRANCH  18  19
ENDBRANCH   5  18
TORSDOF 10
ENDMDL
