MODEL 1
REMARK VINA RESULT:      -6.8      0.000      0.000
REMARK  Name = 40634452
REMARK  4 active torsions:
REMARK  status: ('A' for Active; 'I' for Inactive)
REMARK    1  A    between atoms: CA_1  and  C_2
REMARK    2  A    between atoms: CA_1  and  N_10
REMARK    3  A    between atoms: CA_1  and  C_16
REMARK    4  A    between atoms: C_7  and  O_8
REMARK                            x       y       z     vdW  Elec       q    Type
REMARK                         _______ _______ _______ _____ _____    ______ ____
ROOT
ATOM      1  CA  UNL     1      34.788 -18.111 -22.045  0.00  0.00    +0.064 C 
ENDROOT
BRANCH   1   2
ATOM      2  C   UNL     1      34.725 -19.312 -21.162  0.00  0.00    -0.032 C 
ATOM      3  C   UNL     1      33.489 -19.810 -20.750  0.00  0.00    -0.003 C 
ATOM      4  C   UNL     1      35.902 -19.935 -20.749  0.00  0.00    -0.003 C 
ATOM      5  C   UNL     1      33.431 -20.934 -19.925  0.00  0.00    +0.036 C 
ATOM      6  C   UNL     1      35.845 -21.058 -19.924  0.00  0.00    +0.036 C 
ATOM      7  C   UNL     1      34.609 -21.557 -19.511  0.00  0.00    +0.134 C 
BRANCH   7   8
ATOM      8  O   UNL     1      34.552 -22.653 -18.706  0.00  0.00    -0.506 OA
ATOM      9  H   UNL     1      35.167 -23.350 -18.819  0.00  0.00    +0.292 HD
ENDBRANCH   7   8
ENDBRANCH   1   2
BRANCH   1  10
ATOM     10  N   UNL     1      36.083 -17.983 -22.804  0.00  0.00    +0.391 N 
ATOM     11  H1  UNL     1      36.865 -18.030 -22.152  0.00  0.00    -0.088 HD
ATOM     12  H2  UNL     1      36.102 -17.089 -23.295  0.00  0.00    -0.088 HD
ATOM     13  H3  UNL     1      36.158 -18.743 -23.480  0.00  0.00    -0.088 HD
ENDBRANCH   1  10
BRANCH   1  16
ATOM     14  O   UNL     1      35.261 -16.576 -20.286  0.00  0.00    -0.248 OA
ATOM     15  OXT UNL     1      33.414 -16.239 -21.588  0.00  0.00    -0.248 OA
ATOM     16  C   UNL     1      34.458 -16.853 -21.220  0.00  0.00    +0.349 C 
ENDBRANCH   1  16
TORSDOF 4
ENDMDL
MODEL 2
REMARK VINA RESULT:      -6.8      0.059      1.678
REMARK  Name = 40634452
REMARK  4 active torsions:
REMARK  status: ('A' for Active; 'I' for Inactive)
REMARK    1  A    between atoms: CA_1  and  C_2
REMARK    2  A    between atoms: CA_1  and  N_10
REMARK    3  A    between atoms: CA_1  and  C_16
REMARK    4  A    between atoms: C_7  and  O_8
REMARK                            x       y       z     vdW  Elec       q    Type
REMARK                         _______ _______ _______ _____ _____    ______ ____
ROOT
ATOM      1  CA  UNL     1      34.790 -18.150 -22.020  0.00  0.00    +0.064 C 
ENDROOT
BRANCH   1   2
ATOM      2  C   UNL     1      34.724 -19.352 -21.140  0.00  0.00    -0.032 C 
ATOM      3  C   UNL     1      35.899 -19.988 -20.739  0.00  0.00    -0.003 C 
ATOM      4  C   UNL     1      33.487 -19.840 -20.719  0.00  0.00    -0.003 C 
ATOM      5  C   UNL     1      35.837 -21.112 -19.915  0.00  0.00    +0.036 C 
ATOM      6  C   UNL     1      33.425 -20.965 -19.896  0.00  0.00    +0.036 C 
ATOM      7  C   UNL     1      34.600 -21.600 -19.495  0.00  0.00    +0.134 C 
BRANCH   7   8
ATOM      8  O   UNL     1      34.540 -22.697 -18.691  0.00  0.00    -0.506 OA
ATOM      9  H   UNL     1      35.168 -23.386 -18.789  0.00  0.00    +0.292 HD
ENDBRANCH   7   8
ENDBRANCH   1   2
BRANCH   1  10
ATOM     10  N   UNL     1      36.093 -18.013 -22.765  0.00  0.00    +0.391 N 
ATOM     11  H1  UNL     1      36.847 -17.840 -22.100  0.00  0.00    -0.088 HD
ATOM     12  H2  UNL     1      36.030 -17.232 -23.418  0.00  0.00    -0.088 HD
ATOM     13  H3  UNL     1      36.283 -18.872 -23.279  0.00  0.00    -0.088 HD
ENDBRANCH   1  10
BRANCH   1  16
ATOM     14  O   UNL     1      33.365 -16.313 -21.499  0.00  0.00    -0.248 OA
ATOM     15  OXT UNL     1      35.290 -16.599 -20.303  0.00  0.00    -0.248 OA
ATOM     16  C   UNL     1      34.444 -16.895 -21.197  0.00  0.00    +0.349 C 
ENDBRANCH   1  16
TORSDOF 4
ENDMDL
MODEL 3
REMARK VINA RESULT:      -6.7      1.766      1.967
REMARK  Name = 40634452
REMARK  4 active torsions:
REMARK  status: ('A' for Active; 'I' for Inactive)
REMARK    1  A    between atoms: CA_1  and  C_2
REMARK    2  A    between atoms: CA_1  and  N_10
REMARK    3  A    between atoms: CA_1  and  C_16
REMARK    4  A    between atoms: C_7  and  O_8
REMARK                            x       y       z     vdW  Elec       q    Type
REMARK                         _______ _______ _______ _____ _____    ______ ____
ROOT
ATOM      1  CA  UNL     1      35.420 -18.168 -21.852  0.00  0.00    +0.064 C 
ENDROOT
BRANCH   1   2
ATOM      2  C   UNL     1      34.783 -19.277 -21.086  0.00  0.00    -0.032 C 
ATOM      3  C   UNL     1      33.394 -19.331 -20.961  0.00  0.00    -0.003 C 
ATOM      4  C   UNL     1      35.575 -20.261 -20.496  0.00  0.00    -0.003 C 
ATOM      5  C   UNL     1      32.799 -20.370 -20.246  0.00  0.00    +0.036 C 
ATOM      6  C   UNL     1      34.980 -21.299 -19.780  0.00  0.00    +0.036 C 
ATOM      7  C   UNL     1      33.591 -21.353 -19.654  0.00  0.00    +0.134 C 
BRANCH   7   8
ATOM      8  O   UNL     1      33.010 -22.367 -18.956  0.00  0.00    -0.506 OA
ATOM      9  H   UNL     1      32.980 -23.230 -19.320  0.00  0.00    +0.292 HD
ENDBRANCH   7   8
ENDBRANCH   1   2
BRANCH   1  10
ATOM     10  N   UNL     1      35.129 -16.798 -21.293  0.00  0.00    +0.391 N 
ATOM     11  H1  UNL     1      34.782 -16.888 -20.339  0.00  0.00    -0.088 HD
ATOM     12  H2  UNL     1      34.424 -16.340 -21.870  0.00  0.00    -0.088 HD
ATOM     13  H3  UNL     1      35.983 -16.242 -21.294  0.00  0.00    -0.088 HD
ENDBRANCH   1  10
BRANCH   1  16
ATOM     14  O   UNL     1      35.150 -19.444 -23.845  0.00  0.00    -0.248 OA
ATOM     15  OXT UNL     1      34.662 -17.213 -23.881  0.00  0.00    -0.248 OA
ATOM     16  C   UNL     1      35.043 -18.292 -23.341  0.00  0.00    +0.349 C 
ENDBRANCH   1  16
TORSDOF 4
ENDMDL
MODEL 4
REMARK VINA RESULT:      -6.6      9.213     10.386
REMARK  Name = 40634452
REMARK  4 active torsions:
REMARK  status: ('A' for Active; 'I' for Inactive)
REMARK    1  A    between atoms: CA_1  and  C_2
REMARK    2  A    between atoms: CA_1  and  N_10
REMARK    3  A    between atoms: CA_1  and  C_16
REMARK    4  A    between atoms: C_7  and  O_8
REMARK                            x       y       z     vdW  Elec       q    Type
REMARK                         _______ _______ _______ _____ _____    ______ ____
ROOT
ATOM      1  CA  UNL     1      36.687 -23.735 -12.034  0.00  0.00    +0.064 C 
ENDROOT
BRANCH   1   2
ATOM      2  C   UNL     1      36.707 -24.699 -13.172  0.00  0.00    -0.032 C 
ATOM      3  C   UNL     1      37.594 -25.775 -13.159  0.00  0.00    -0.003 C 
ATOM      4  C   UNL     1      35.839 -24.523 -14.249  0.00  0.00    -0.003 C 
ATOM      5  C   UNL     1      37.612 -26.677 -14.223  0.00  0.00    +0.036 C 
ATOM      6  C   UNL     1      35.857 -25.424 -15.314  0.00  0.00    +0.036 C 
ATOM      7  C   UNL     1      36.744 -26.501 -15.300  0.00  0.00    +0.134 C 
BRANCH   7   8
ATOM      8  O   UNL     1      36.762 -27.381 -16.338  0.00  0.00    -0.506 OA
ATOM      9  H   UNL     1      36.863 -27.068 -17.216  0.00  0.00    +0.292 HD
ENDBRANCH   7   8
ENDBRANCH   1   2
BRANCH   1  10
ATOM     10  N   UNL     1      38.057 -23.294 -11.587  0.00  0.00    +0.391 N 
ATOM     11  H1  UNL     1      38.029 -22.307 -11.332  0.00  0.00    -0.088 HD
ATOM     12  H2  UNL     1      38.722 -23.431 -12.348  0.00  0.00    -0.088 HD
ATOM     13  H3  UNL     1      38.345 -23.846 -10.780  0.00  0.00    -0.088 HD
ENDBRANCH   1  10
BRANCH   1  16
ATOM     14  O   UNL     1      34.825 -24.979 -11.221  0.00  0.00    -0.248 OA
ATOM     15  OXT UNL     1      36.296 -24.075  -9.725  0.00  0.00    -0.248 OA
ATOM     16  C   UNL     1      35.849 -24.322 -10.883  0.00  0.00    +0.349 C 
ENDBRANCH   1  16
TORSDOF 4
ENDMDL
MODEL 5
REMARK VINA RESULT:      -6.5      0.688      1.548
REMARK  Name = 40634452
REMARK  4 active torsions:
REMARK  status: ('A' for Active; 'I' for Inactive)
REMARK    1  A    between atoms: CA_1  and  C_2
REMARK    2  A    between atoms: CA_1  and  N_10
REMARK    3  A    between atoms: CA_1  and  C_16
REMARK    4  A    between atoms: C_7  and  O_8
REMARK                            x       y       z     vdW  Elec       q    Type
REMARK                         _______ _______ _______ _____ _____    ______ ____
ROOT
ATOM      1  CA  UNL     1      34.544 -17.488 -22.019  0.00  0.00    +0.064 C 
ENDROOT
BRANCH   1   2
ATOM      2  C   UNL     1      34.719 -18.762 -21.265  0.00  0.00    -0.032 C 
ATOM      3  C   UNL     1      36.001 -19.251 -21.008  0.00  0.00    -0.003 C 
ATOM      4  C   UNL     1      33.602 -19.465 -20.816  0.00  0.00    -0.003 C 
ATOM      5  C   UNL     1      36.164 -20.442 -20.301  0.00  0.00    +0.036 C 
ATOM      6  C   UNL     1      33.765 -20.657 -20.110  0.00  0.00    +0.036 C 
ATOM      7  C   UNL     1      35.046 -21.145 -19.853  0.00  0.00    +0.134 C 
BRANCH   7   8
ATOM      8  O   UNL     1      35.206 -22.308 -19.163  0.00  0.00    -0.506 OA
ATOM      9  H   UNL     1      34.917 -23.118 -19.536  0.00  0.00    +0.292 HD
ENDBRANCH   7   8
ENDBRANCH   1   2
BRANCH   1  10
ATOM     10  N   UNL     1      35.742 -17.105 -22.851  0.00  0.00    +0.391 N 
ATOM     11  H1  UNL     1      36.131 -17.939 -23.289  0.00  0.00    -0.088 HD
ATOM     12  H2  UNL     1      36.446 -16.674 -22.252  0.00  0.00    -0.088 HD
ATOM     13  H3  UNL     1      35.457 -16.443 -23.572  0.00  0.00    -0.088 HD
ENDBRANCH   1  10
BRANCH   1  16
ATOM     14  O   UNL     1      35.003 -15.973 -20.239  0.00  0.00    -0.248 OA
ATOM     15  OXT UNL     1      32.921 -15.984 -21.179  0.00  0.00    -0.248 OA
ATOM     16  C   UNL     1      34.118 -16.373 -21.046  0.00  0.00    +0.349 C 
ENDBRANCH   1  16
TORSDOF 4
ENDMDL
MODEL 6
REMARK VINA RESULT:      -6.4      9.206     10.348
REMARK  Name = 40634452
REMARK  4 active torsions:
REMARK  status: ('A' for Active; 'I' for Inactive)
REMARK    1  A    between atoms: CA_1  and  C_2
REMARK    2  A    between atoms: CA_1  and  N_10
REMARK    3  A    between atoms: CA_1  and  C_16
REMARK    4  A    between atoms: C_7  and  O_8
REMARK                            x       y       z     vdW  Elec       q    Type
REMARK                         _______ _______ _______ _____ _____    ______ ____
ROOT
ATOM      1  CA  UNL     1      36.012 -24.345 -12.186  0.00  0.00    +0.064 C 
ENDROOT
BRANCH   1   2
ATOM      2  C   UNL     1      37.140 -24.682 -13.101  0.00  0.00    -0.032 C 
ATOM      3  C   UNL     1      38.109 -25.604 -12.704  0.00  0.00    -0.003 C 
ATOM      4  C   UNL     1      37.225 -24.077 -14.354  0.00  0.00    -0.003 C 
ATOM      5  C   UNL     1      39.164 -25.920 -13.560  0.00  0.00    +0.036 C 
ATOM      6  C   UNL     1      38.280 -24.392 -15.211  0.00  0.00    +0.036 C 
ATOM      7  C   UNL     1      39.249 -25.313 -14.813  0.00  0.00    +0.134 C 
BRANCH   7   8
ATOM      8  O   UNL     1      40.278 -25.622 -15.649  0.00  0.00    -0.506 OA
ATOM      9  H   UNL     1      40.481 -25.059 -16.371  0.00  0.00    +0.292 HD
ENDBRANCH   7   8
ENDBRANCH   1   2
BRANCH   1  10
ATOM     10  N   UNL     1      34.911 -23.554 -12.845  0.00  0.00    +0.391 N 
ATOM     11  H1  UNL     1      34.823 -23.842 -13.819  0.00  0.00    -0.088 HD
ATOM     12  H2  UNL     1      35.136 -22.560 -12.804  0.00  0.00    -0.088 HD
ATOM     13  H3  UNL     1      34.032 -23.724 -12.358  0.00  0.00    -0.088 HD
ENDBRANCH   1  10
BRANCH   1  16
ATOM     14  O   UNL     1      37.333 -22.670 -11.125  0.00  0.00    -0.248 OA
ATOM     15  OXT UNL     1      36.175 -24.155  -9.833  0.00  0.00    -0.248 OA
ATOM     16  C   UNL     1      36.566 -23.653 -10.926  0.00  0.00    +0.349 C 
ENDBRANCH   1  16
TORSDOF 4
ENDMDL
MODEL 7
REMARK VINA RESULT:      -6.2      2.145      4.747
REMARK  Name = 40634452
REMARK  4 active torsions:
REMARK  status: ('A' for Active; 'I' for Inactive)
REMARK    1  A    between atoms: CA_1  and  C_2
REMARK    2  A    between atoms: CA_1  and  N_10
REMARK    3  A    between atoms: CA_1  and  C_16
REMARK    4  A    between atoms: C_7  and  O_8
REMARK                            x       y       z     vdW  Elec       q    Type
REMARK                         _______ _______ _______ _____ _____    ______ ____
ROOT
ATOM      1  CA  UNL     1      33.969 -20.455 -20.794  0.00  0.00    +0.064 C 
ENDROOT
BRANCH   1   2
ATOM      2  C   UNL     1      34.392 -19.254 -21.571  0.00  0.00    -0.032 C 
ATOM      3  C   UNL     1      34.922 -19.404 -22.853  0.00  0.00    -0.003 C 
ATOM      4  C   UNL     1      34.256 -17.982 -21.016  0.00  0.00    -0.003 C 
ATOM      5  C   UNL     1      35.316 -18.281 -23.579  0.00  0.00    +0.036 C 
ATOM      6  C   UNL     1      34.651 -16.859 -21.743  0.00  0.00    +0.036 C 
ATOM      7  C   UNL     1      35.182 -17.009 -23.024  0.00  0.00    +0.134 C 
BRANCH   7   8
ATOM      8  O   UNL     1      35.567 -15.913 -23.734  0.00  0.00    -0.506 OA
ATOM      9  H   UNL     1      36.051 -15.229 -23.314  0.00  0.00    +0.292 HD
ENDBRANCH   7   8
ENDBRANCH   1   2
BRANCH   1  10
ATOM     10  N   UNL     1      32.681 -20.264 -20.034  0.00  0.00    +0.391 N 
ATOM     11  H1  UNL     1      32.605 -20.979 -19.311  0.00  0.00    -0.088 HD
ATOM     12  H2  UNL     1      31.893 -20.343 -20.676  0.00  0.00    -0.088 HD
ATOM     13  H3  UNL     1      32.676 -19.341 -19.601  0.00  0.00    -0.088 HD
ENDBRANCH   1  10
BRANCH   1  16
ATOM     14  O   UNL     1      36.169 -20.197 -19.916  0.00  0.00    -0.248 OA
ATOM     15  OXT UNL     1      34.892 -21.957 -19.215  0.00  0.00    -0.248 OA
ATOM     16  C   UNL     1      35.128 -20.912 -19.888  0.00  0.00    +0.349 C 
ENDBRANCH   1  16
TORSDOF 4
ENDMDL
MODEL 8
REMARK VINA RESULT:      -6.2      9.074     10.221
REMARK  Name = 40634452
REMARK  4 active torsions:
REMARK  status: ('A' for Active; 'I' for Inactive)
REMARK    1  A    between atoms: CA_1  and  C_2
REMARK    2  A    between atoms: CA_1  and  N_10
REMARK    3  A    between atoms: CA_1  and  C_16
REMARK    4  A    between atoms: C_7  and  O_8
REMARK                            x       y       z     vdW  Elec       q    Type
REMARK                         _______ _______ _______ _____ _____    ______ ____
ROOT
ATOM      1  CA  UNL     1      36.546 -23.509 -12.209  0.00  0.00    +0.064 C 
ENDROOT
BRANCH   1   2
ATOM      2  C   UNL     1      37.528 -24.095 -13.167  0.00  0.00    -0.032 C 
ATOM      3  C   UNL     1      37.526 -23.691 -14.502  0.00  0.00    -0.003 C 
ATOM      4  C   UNL     1      38.447 -25.046 -12.726  0.00  0.00    -0.003 C 
ATOM      5  C   UNL     1      38.446 -24.238 -15.397  0.00  0.00    +0.036 C 
ATOM      6  C   UNL     1      39.366 -25.594 -13.621  0.00  0.00    +0.036 C 
ATOM      7  C   UNL     1      39.365 -25.190 -14.957  0.00  0.00    +0.134 C 
BRANCH   7   8
ATOM      8  O   UNL     1      40.262 -25.724 -15.830  0.00  0.00    -0.506 OA
ATOM      9  H   UNL     1      40.929 -26.305 -15.521  0.00  0.00    +0.292 HD
ENDBRANCH   7   8
ENDBRANCH   1   2
BRANCH   1  10
ATOM     10  N   UNL     1      37.156 -23.082 -10.899  0.00  0.00    +0.391 N 
ATOM     11  H1  UNL     1      38.126 -23.393 -10.859  0.00  0.00    -0.088 HD
ATOM     12  H2  UNL     1      36.633 -23.499 -10.129  0.00  0.00    -0.088 HD
ATOM     13  H3  UNL     1      37.120 -22.066 -10.823  0.00  0.00    -0.088 HD
ENDBRANCH   1  10
BRANCH   1  16
ATOM     14  O   UNL     1      34.533 -24.532 -12.969  0.00  0.00    -0.248 OA
ATOM     15  OXT UNL     1      35.386 -25.133 -10.937  0.00  0.00    -0.248 OA
ATOM     16  C   UNL     1      35.368 -24.485 -12.024  0.00  0.00    +0.349 C 
ENDBRANCH   1  16
TORSDOF 4
ENDMDL
MODEL 9
REMARK VINA RESULT:      -6.1     10.550     11.730
REMARK  Name = 40634452
REMARK  4 active torsions:
REMARK  status: ('A' for Active; 'I' for Inactive)
REMARK    1  A    between atoms: CA_1  and  C_2
REMARK    2  A    between atoms: CA_1  and  N_10
REMARK    3  A    between atoms: CA_1  and  C_16
REMARK    4  A    between atoms: C_7  and  O_8
REMARK                            x       y       z     vdW  Elec       q    Type
REMARK                         _______ _______ _______ _____ _____    ______ ____
ROOT
ATOM      1  CA  UNL     1      31.965  -7.315 -21.440  0.00  0.00    +0.064 C 
ENDROOT
BRANCH   1   2
ATOM      2  C   UNL     1      32.868  -8.055 -22.368  0.00  0.00    -0.032 C 
ATOM      3  C   UNL     1      34.031  -7.448 -22.841  0.00  0.00    -0.003 C 
ATOM      4  C   UNL     1      32.549  -9.354 -22.761  0.00  0.00    -0.003 C 
ATOM      5  C   UNL     1      34.876  -8.141 -23.708  0.00  0.00    +0.036 C 
ATOM      6  C   UNL     1      33.393 -10.048 -23.629  0.00  0.00    +0.036 C 
ATOM      7  C   UNL     1      34.556  -9.440 -24.102  0.00  0.00    +0.134 C 
BRANCH   7   8
ATOM      8  O   UNL     1      35.381 -10.116 -24.948  0.00  0.00    -0.506 OA
ATOM      9  H   UNL     1      35.856  -9.652 -25.610  0.00  0.00    +0.292 HD
ENDBRANCH   7   8
ENDBRANCH   1   2
BRANCH   1  10
ATOM     10  N   UNL     1      31.918  -5.830 -21.693  0.00  0.00    +0.391 N 
ATOM     11  H1  UNL     1      32.867  -5.476 -21.811  0.00  0.00    -0.088 HD
ATOM     12  H2  UNL     1      31.477  -5.364 -20.900  0.00  0.00    -0.088 HD
ATOM     13  H3  UNL     1      31.379  -5.647 -22.539  0.00  0.00    -0.088 HD
ENDBRANCH   1  10
BRANCH   1  16
ATOM     14  O   UNL     1      31.897  -8.753 -19.541  0.00  0.00    -0.248 OA
ATOM     15  OXT UNL     1      33.053  -6.788 -19.405  0.00  0.00    -0.248 OA
ATOM     16  C   UNL     1      32.337  -7.656 -19.984  0.00  0.00    +0.349 C 
ENDBRANCH   1  16
TORSDOF 4
ENDMDL
