MODEL 1
REMARK VINA RESULT:      -9.9      0.000      0.000
REMARK  Name = 17676
REMARK  8 active torsions:
REMARK  status: ('A' for Active; 'I' for Inactive)
REMARK    1  A    between atoms: N_2  and  C_18
REMARK    2  A    between atoms: C_10  and  C_16
REMARK    3  A    between atoms: C_18  and  C_19
REMARK    4  A    between atoms: C_19  and  C_20
REMARK    5  A    between atoms: C_20  and  N_21
REMARK    6  A    between atoms: N_22  and  C_29
REMARK    7  A    between atoms: C_29  and  C_30
REMARK    8  A    between atoms: C_30  and  O_31
REMARK                            x       y       z     vdW  Elec       q    Type
REMARK                         _______ _______ _______ _____ _____    ______ ____
ROOT
ATOM      1  S   UNL     1      37.853 -23.144 -15.155  0.00  0.00    -0.084 S 
ATOM      2  N   UNL     1      34.813 -23.783 -15.026  0.00  0.00    -0.286 N 
ATOM      3  C   UNL     1      35.248 -23.089 -16.184  0.00  0.00    +0.058 C 
ATOM      4  C   UNL     1      35.501 -23.810 -13.786  0.00  0.00    +0.058 C 
ATOM      5  C   UNL     1      36.598 -22.723 -16.347  0.00  0.00    +0.043 C 
ATOM      6  C   UNL     1      36.877 -23.514 -13.712  0.00  0.00    +0.043 C 
ATOM      7  C   UNL     1      34.351 -22.702 -17.204  0.00  0.00    +0.018 C 
ATOM      8  C   UNL     1      34.840 -24.095 -12.571  0.00  0.00    +0.015 C 
ATOM      9  C   UNL     1      37.022 -22.028 -17.494  0.00  0.00    +0.008 C 
ATOM     10  C   UNL     1      34.777 -22.008 -18.339  0.00  0.00    +0.036 C 
ATOM     11  C   UNL     1      37.552 -23.536 -12.478  0.00  0.00    +0.008 C 
ATOM     12  C   UNL     1      36.114 -21.673 -18.486  0.00  0.00    +0.003 C 
ATOM     13  C   UNL     1      35.516 -24.110 -11.347  0.00  0.00    +0.001 C 
ATOM     14  C   UNL     1      36.873 -23.833 -11.301  0.00  0.00    +0.001 C 
ENDROOT
BRANCH  10  16
ATOM     15  O   UNL     1      32.746 -22.265 -19.512  0.00  0.00    -0.291 OA
ATOM     16  C   UNL     1      33.819 -21.644 -19.372  0.00  0.00    +0.174 C 
ATOM     17  C   UNL     1      34.110 -20.483 -20.316  0.00  0.00    +0.077 C 
ENDBRANCH  10  16
BRANCH   2  18
ATOM     18  C   UNL     1      33.518 -24.471 -15.095  0.00  0.00    +0.093 C 
BRANCH  18  19
ATOM     19  C   UNL     1      32.430 -23.646 -14.410  0.00  0.00    -0.001 C 
BRANCH  19  20
ATOM     20  C   UNL     1      31.215 -24.456 -13.944  0.00  0.00    -0.076 C 
BRANCH  20  21
ATOM     21  N   UNL     1      29.998 -24.078 -14.660  0.00  0.00    +0.384 N 
ATOM     22  N   UNL     1      28.577 -23.069 -16.967  0.00  0.00    +0.386 N 
ATOM     23  C   UNL     1      29.831 -24.894 -15.870  0.00  0.00    -0.101 C 
ATOM     24  C   UNL     1      30.017 -22.651 -15.002  0.00  0.00    -0.101 C 
ATOM     25  C   UNL     1      28.557 -24.496 -16.624  0.00  0.00    -0.101 C 
ATOM     26  C   UNL     1      28.743 -22.254 -15.757  0.00  0.00    -0.101 C 
ATOM     27  H   UNL     1      29.204 -24.251 -14.044  0.00  0.00    -0.080 HD
ATOM     28  H   UNL     1      29.373 -22.897 -17.581  0.00  0.00    -0.080 HD
BRANCH  22  29
ATOM     29  C   UNL     1      27.362 -22.691 -17.685  0.00  0.00    -0.045 C 
BRANCH  29  30
ATOM     30  C   UNL     1      26.609 -21.606 -16.931  0.00  0.00    +0.115 C 
BRANCH  30  31
ATOM     31  O   UNL     1      26.230 -20.590 -17.850  0.00  0.00    -0.384 OA
ATOM     32  H   UNL     1      26.974 -19.981 -17.984  0.00  0.00    +0.210 HD
ENDBRANCH  30  31
ENDBRANCH  29  30
ENDBRANCH  22  29
ENDBRANCH  20  21
ENDBRANCH  19  20
ENDBRANCH  18  19
ENDBRANCH   2  18
TORSDOF 8
ENDMDL
MODEL 2
REMARK VINA RESULT:      -9.3      3.399      7.019
REMARK  Name = 17676
REMARK  8 active torsions:
REMARK  status: ('A' for Active; 'I' for Inactive)
REMARK    1  A    between atoms: N_2  and  C_18
REMARK    2  A    between atoms: C_10  and  C_16
REMARK    3  A    between atoms: C_18  and  C_19
REMARK    4  A    between atoms: C_19  and  C_20
REMARK    5  A    between atoms: C_20  and  N_21
REMARK    6  A    between atoms: N_22  and  C_29
REMARK    7  A    between atoms: C_29  and  C_30
REMARK    8  A    between atoms: C_30  and  O_31
REMARK                            x       y       z     vdW  Elec       q    Type
REMARK                         _______ _______ _______ _____ _____    ______ ____
ROOT
ATOM      1  S   UNL     1      32.110 -24.566 -13.580  0.00  0.00    -0.084 S 
ATOM      2  N   UNL     1      32.851 -23.598 -16.441  0.00  0.00    -0.286 N 
ATOM      3  C   UNL     1      33.933 -23.713 -15.530  0.00  0.00    +0.058 C 
ATOM      4  C   UNL     1      31.489 -23.448 -16.074  0.00  0.00    +0.058 C 
ATOM      5  C   UNL     1      33.720 -24.120 -14.198  0.00  0.00    +0.043 C 
ATOM      6  C   UNL     1      31.035 -23.829 -14.796  0.00  0.00    +0.043 C 
ATOM      7  C   UNL     1      35.257 -23.394 -15.899  0.00  0.00    +0.018 C 
ATOM      8  C   UNL     1      30.538 -22.883 -16.950  0.00  0.00    +0.015 C 
ATOM      9  C   UNL     1      34.795 -24.224 -13.298  0.00  0.00    +0.008 C 
ATOM     10  C   UNL     1      36.321 -23.495 -14.999  0.00  0.00    +0.036 C 
ATOM     11  C   UNL     1      29.685 -23.671 -14.435  0.00  0.00    +0.008 C 
ATOM     12  C   UNL     1      36.091 -23.913 -13.698  0.00  0.00    +0.003 C 
ATOM     13  C   UNL     1      29.197 -22.724 -16.584  0.00  0.00    +0.001 C 
ATOM     14  C   UNL     1      28.771 -23.122 -15.327  0.00  0.00    +0.001 C 
ENDROOT
BRANCH  10  16
ATOM     15  O   UNL     1      38.664 -23.772 -14.971  0.00  0.00    -0.291 OA
ATOM     16  C   UNL     1      37.672 -23.170 -15.430  0.00  0.00    +0.174 C 
ATOM     17  C   UNL     1      37.908 -22.072 -16.462  0.00  0.00    +0.077 C 
ENDBRANCH  10  16
BRANCH   2  18
ATOM     18  C   UNL     1      33.173 -23.564 -17.873  0.00  0.00    +0.093 C 
BRANCH  18  19
ATOM     19  C   UNL     1      33.437 -22.131 -18.334  0.00  0.00    -0.001 C 
BRANCH  19  20
ATOM     20  C   UNL     1      34.599 -21.984 -19.322  0.00  0.00    -0.076 C 
BRANCH  20  21
ATOM     21  N   UNL     1      34.769 -20.600 -19.763  0.00  0.00    +0.384 N 
ATOM     22  N   UNL     1      35.118 -18.567 -21.788  0.00  0.00    +0.386 N 
ATOM     23  C   UNL     1      33.658 -20.187 -20.627  0.00  0.00    -0.101 C 
ATOM     24  C   UNL     1      36.051 -20.429 -20.457  0.00  0.00    -0.101 C 
ATOM     25  C   UNL     1      33.837 -18.737 -21.092  0.00  0.00    -0.101 C 
ATOM     26  C   UNL     1      36.230 -18.980 -20.923  0.00  0.00    -0.101 C 
ATOM     27  H   UNL     1      34.770 -20.004 -18.934  0.00  0.00    -0.080 HD
ATOM     28  H   UNL     1      35.117 -19.165 -22.615  0.00  0.00    -0.080 HD
BRANCH  22  29
ATOM     29  C   UNL     1      35.289 -17.185 -22.230  0.00  0.00    -0.045 C 
BRANCH  29  30
ATOM     30  C   UNL     1      34.286 -16.273 -21.542  0.00  0.00    +0.115 C 
BRANCH  30  31
ATOM     31  O   UNL     1      34.966 -15.508 -20.556  0.00  0.00    -0.384 OA
ATOM     32  H   UNL     1      34.346 -14.883 -20.148  0.00  0.00    +0.210 HD
ENDBRANCH  30  31
ENDBRANCH  29  30
ENDBRANCH  22  29
ENDBRANCH  20  21
ENDBRANCH  19  20
ENDBRANCH  18  19
ENDBRANCH   2  18
TORSDOF 8
ENDMDL
MODEL 3
REMARK VINA RESULT:      -9.2      2.996      6.408
REMARK  Name = 17676
REMARK  8 active torsions:
REMARK  status: ('A' for Active; 'I' for Inactive)
REMARK    1  A    between atoms: N_2  and  C_18
REMARK    2  A    between atoms: C_10  and  C_16
REMARK    3  A    between atoms: C_18  and  C_19
REMARK    4  A    between atoms: C_19  and  C_20
REMARK    5  A    between atoms: C_20  and  N_21
REMARK    6  A    between atoms: N_22  and  C_29
REMARK    7  A    between atoms: C_29  and  C_30
REMARK    8  A    between atoms: C_30  and  O_31
REMARK                            x       y       z     vdW  Elec       q    Type
REMARK                         _______ _______ _______ _____ _____    ______ ____
ROOT
ATOM      1  S   UNL     1      35.647 -24.940 -12.592  0.00  0.00    -0.084 S 
ATOM      2  N   UNL     1      36.003 -23.158 -15.115  0.00  0.00    -0.286 N 
ATOM      3  C   UNL     1      34.665 -23.483 -14.775  0.00  0.00    +0.058 C 
ATOM      4  C   UNL     1      37.148 -23.894 -14.714  0.00  0.00    +0.058 C 
ATOM      5  C   UNL     1      34.376 -24.302 -13.666  0.00  0.00    +0.043 C 
ATOM      6  C   UNL     1      37.104 -24.755 -13.600  0.00  0.00    +0.043 C 
ATOM      7  C   UNL     1      33.569 -23.035 -15.544  0.00  0.00    +0.018 C 
ATOM      8  C   UNL     1      38.365 -23.829 -15.427  0.00  0.00    +0.015 C 
ATOM      9  C   UNL     1      33.048 -24.628 -13.338  0.00  0.00    +0.008 C 
ATOM     10  C   UNL     1      32.251 -23.365 -15.217  0.00  0.00    +0.036 C 
ATOM     11  C   UNL     1      38.240 -25.488 -13.212  0.00  0.00    +0.008 C 
ATOM     12  C   UNL     1      31.990 -24.160 -14.111  0.00  0.00    +0.003 C 
ATOM     13  C   UNL     1      39.489 -24.564 -15.040  0.00  0.00    +0.001 C 
ATOM     14  C   UNL     1      39.427 -25.391 -13.929  0.00  0.00    +0.001 C 
ENDROOT
BRANCH  10  16
ATOM     15  O   UNL     1      31.329 -22.507 -17.211  0.00  0.00    -0.291 OA
ATOM     16  C   UNL     1      31.153 -22.867 -16.030  0.00  0.00    +0.174 C 
ATOM     17  C   UNL     1      29.746 -22.774 -15.448  0.00  0.00    +0.077 C 
ENDBRANCH  10  16
BRANCH   2  18
ATOM     18  C   UNL     1      36.216 -22.010 -16.005  0.00  0.00    +0.093 C 
BRANCH  18  19
ATOM     19  C   UNL     1      35.844 -22.365 -17.444  0.00  0.00    -0.001 C 
BRANCH  19  20
ATOM     20  C   UNL     1      36.759 -21.751 -18.509  0.00  0.00    -0.076 C 
BRANCH  20  21
ATOM     21  N   UNL     1      36.093 -20.682 -19.251  0.00  0.00    +0.384 N 
ATOM     22  N   UNL     1      35.079 -19.476 -21.675  0.00  0.00    +0.386 N 
ATOM     23  C   UNL     1      34.871 -21.178 -19.896  0.00  0.00    -0.101 C 
ATOM     24  C   UNL     1      36.998 -20.098 -20.248  0.00  0.00    -0.101 C 
ATOM     25  C   UNL     1      34.174 -20.059 -20.678  0.00  0.00    -0.101 C 
ATOM     26  C   UNL     1      36.301 -18.979 -21.030  0.00  0.00    -0.101 C 
ATOM     27  H   UNL     1      35.832 -19.953 -18.587  0.00  0.00    -0.080 HD
ATOM     28  H   UNL     1      35.341 -20.205 -22.338  0.00  0.00    -0.080 HD
BRANCH  22  29
ATOM     29  C   UNL     1      34.414 -18.408 -22.419  0.00  0.00    -0.045 C 
BRANCH  29  30
ATOM     30  C   UNL     1      35.129 -18.144 -23.734  0.00  0.00    +0.115 C 
BRANCH  30  31
ATOM     31  O   UNL     1      35.618 -16.809 -23.728  0.00  0.00    -0.384 OA
ATOM     32  H   UNL     1      36.383 -16.742 -24.321  0.00  0.00    +0.210 HD
ENDBRANCH  30  31
ENDBRANCH  29  30
ENDBRANCH  22  29
ENDBRANCH  20  21
ENDBRANCH  19  20
ENDBRANCH  18  19
ENDBRANCH   2  18
TORSDOF 8
ENDMDL
MODEL 4
REMARK VINA RESULT:      -9.2     12.855     16.456
REMARK  Name = 17676
REMARK  8 active torsions:
REMARK  status: ('A' for Active; 'I' for Inactive)
REMARK    1  A    between atoms: N_2  and  C_18
REMARK    2  A    between atoms: C_10  and  C_16
REMARK    3  A    between atoms: C_18  and  C_19
REMARK    4  A    between atoms: C_19  and  C_20
REMARK    5  A    between atoms: C_20  and  N_21
REMARK    6  A    between atoms: N_22  and  C_29
REMARK    7  A    between atoms: C_29  and  C_30
REMARK    8  A    between atoms: C_30  and  O_31
REMARK                            x       y       z     vdW  Elec       q    Type
REMARK                         _______ _______ _______ _____ _____    ______ ____
ROOT
ATOM      1  S   UNL     1      32.196  -7.571 -19.865  0.00  0.00    -0.084 S 
ATOM      2  N   UNL     1      32.228  -8.792 -22.724  0.00  0.00    -0.286 N 
ATOM      3  C   UNL     1      31.993  -7.395 -22.654  0.00  0.00    +0.058 C 
ATOM      4  C   UNL     1      32.007  -9.709 -21.665  0.00  0.00    +0.058 C 
ATOM      5  C   UNL     1      31.933  -6.730 -21.413  0.00  0.00    +0.043 C 
ATOM      6  C   UNL     1      31.948  -9.274 -20.327  0.00  0.00    +0.043 C 
ATOM      7  C   UNL     1      31.774  -6.615 -23.810  0.00  0.00    +0.018 C 
ATOM      8  C   UNL     1      31.802 -11.086 -21.901  0.00  0.00    +0.015 C 
ATOM      9  C   UNL     1      31.692  -5.346 -21.349  0.00  0.00    +0.008 C 
ATOM     10  C   UNL     1      31.531  -5.240 -23.741  0.00  0.00    +0.036 C 
ATOM     11  C   UNL     1      31.722 -10.187 -19.282  0.00  0.00    +0.008 C 
ATOM     12  C   UNL     1      31.493  -4.605 -22.509  0.00  0.00    +0.003 C 
ATOM     13  C   UNL     1      31.573 -11.989 -20.859  0.00  0.00    +0.001 C 
ATOM     14  C   UNL     1      31.537 -11.540 -19.548  0.00  0.00    +0.001 C 
ENDROOT
BRANCH  10  16
ATOM     15  O   UNL     1      30.364  -3.690 -25.083  0.00  0.00    -0.291 OA
ATOM     16  C   UNL     1      31.327  -4.475 -24.961  0.00  0.00    +0.174 C 
ATOM     17  C   UNL     1      32.295  -4.617 -26.130  0.00  0.00    +0.077 C 
ENDBRANCH  10  16
BRANCH   2  18
ATOM     18  C   UNL     1      32.669  -9.340 -24.013  0.00  0.00    +0.093 C 
BRANCH  18  19
ATOM     19  C   UNL     1      34.184  -9.541 -24.025  0.00  0.00    -0.001 C 
BRANCH  19  20
ATOM     20  C   UNL     1      34.710 -10.341 -25.222  0.00  0.00    -0.076 C 
BRANCH  20  21
ATOM     21  N   UNL     1      33.904 -11.533 -25.480  0.00  0.00    +0.384 N 
ATOM     22  N   UNL     1      33.579 -14.359 -25.998  0.00  0.00    +0.386 N 
ATOM     23  C   UNL     1      34.092 -12.530 -24.418  0.00  0.00    -0.101 C 
ATOM     24  C   UNL     1      34.232 -12.110 -26.789  0.00  0.00    -0.101 C 
ATOM     25  C   UNL     1      33.250 -13.782 -24.690  0.00  0.00    -0.101 C 
ATOM     26  C   UNL     1      33.390 -13.362 -27.060  0.00  0.00    -0.101 C 
ATOM     27  H   UNL     1      32.923 -11.254 -25.488  0.00  0.00    -0.080 HD
ATOM     28  H   UNL     1      34.561 -14.636 -25.990  0.00  0.00    -0.080 HD
BRANCH  22  29
ATOM     29  C   UNL     1      32.776 -15.551 -26.256  0.00  0.00    -0.045 C 
BRANCH  29  30
ATOM     30  C   UNL     1      33.457 -16.790 -25.697  0.00  0.00    +0.115 C 
BRANCH  30  31
ATOM     31  O   UNL     1      34.861 -16.659 -25.876  0.00  0.00    -0.384 OA
ATOM     32  H   UNL     1      35.267 -16.366 -25.045  0.00  0.00    +0.210 HD
ENDBRANCH  30  31
ENDBRANCH  29  30
ENDBRANCH  22  29
ENDBRANCH  20  21
ENDBRANCH  19  20
ENDBRANCH  18  19
ENDBRANCH   2  18
TORSDOF 8
ENDMDL
MODEL 5
REMARK VINA RESULT:      -9.2     10.513     14.090
REMARK  Name = 17676
REMARK  8 active torsions:
REMARK  status: ('A' for Active; 'I' for Inactive)
REMARK    1  A    between atoms: N_2  and  C_18
REMARK    2  A    between atoms: C_10  and  C_16
REMARK    3  A    between atoms: C_18  and  C_19
REMARK    4  A    between atoms: C_19  and  C_20
REMARK    5  A    between atoms: C_20  and  N_21
REMARK    6  A    between atoms: N_22  and  C_29
REMARK    7  A    between atoms: C_29  and  C_30
REMARK    8  A    between atoms: C_30  and  O_31
REMARK                            x       y       z     vdW  Elec       q    Type
REMARK                         _______ _______ _______ _____ _____    ______ ____
ROOT
ATOM      1  S   UNL     1      34.530 -16.308 -21.425  0.00  0.00    -0.084 S 
ATOM      2  N   UNL     1      33.512 -14.414 -23.671  0.00  0.00    -0.286 N 
ATOM      3  C   UNL     1      33.105 -14.081 -22.354  0.00  0.00    +0.058 C 
ATOM      4  C   UNL     1      33.930 -15.702 -24.094  0.00  0.00    +0.058 C 
ATOM      5  C   UNL     1      33.484 -14.876 -21.254  0.00  0.00    +0.043 C 
ATOM      6  C   UNL     1      34.389 -16.657 -23.166  0.00  0.00    +0.043 C 
ATOM      7  C   UNL     1      32.279 -12.968 -22.085  0.00  0.00    +0.018 C 
ATOM      8  C   UNL     1      33.872 -16.098 -25.448  0.00  0.00    +0.015 C 
ATOM      9  C   UNL     1      33.070 -14.546 -19.951  0.00  0.00    +0.008 C 
ATOM     10  C   UNL     1      31.868 -12.647 -20.789  0.00  0.00    +0.036 C 
ATOM     11  C   UNL     1      34.795 -17.935 -23.591  0.00  0.00    +0.008 C 
ATOM     12  C   UNL     1      32.266 -13.435 -19.720  0.00  0.00    +0.003 C 
ATOM     13  C   UNL     1      34.272 -17.372 -25.863  0.00  0.00    +0.001 C 
ATOM     14  C   UNL     1      34.737 -18.289 -24.935  0.00  0.00    +0.001 C 
ENDROOT
BRANCH  10  16
ATOM     15  O   UNL     1      30.061 -11.219 -21.302  0.00  0.00    -0.291 OA
ATOM     16  C   UNL     1      31.029 -11.480 -20.560  0.00  0.00    +0.174 C 
ATOM     17  C   UNL     1      31.319 -10.542 -19.393  0.00  0.00    +0.077 C 
ENDBRANCH  10  16
BRANCH   2  18
ATOM     18  C   UNL     1      33.430 -13.361 -24.691  0.00  0.00    +0.093 C 
BRANCH  18  19
ATOM     19  C   UNL     1      34.320 -12.175 -24.317  0.00  0.00    -0.001 C 
BRANCH  19  20
ATOM     20  C   UNL     1      33.834 -10.823 -24.848  0.00  0.00    -0.076 C 
BRANCH  20  21
ATOM     21  N   UNL     1      33.623  -9.857 -23.771  0.00  0.00    +0.384 N 
ATOM     22  N   UNL     1      32.733  -7.309 -22.734  0.00  0.00    +0.386 N 
ATOM     23  C   UNL     1      32.195  -9.554 -23.613  0.00  0.00    -0.101 C 
ATOM     24  C   UNL     1      34.384  -8.627 -24.018  0.00  0.00    -0.101 C 
ATOM     25  C   UNL     1      31.974  -8.539 -22.485  0.00  0.00    -0.101 C 
ATOM     26  C   UNL     1      34.162  -7.611 -22.891  0.00  0.00    -0.101 C 
ATOM     27  H   UNL     1      33.960 -10.275 -22.903  0.00  0.00    -0.080 HD
ATOM     28  H   UNL     1      32.397  -6.892 -23.602  0.00  0.00    -0.080 HD
BRANCH  22  29
ATOM     29  C   UNL     1      32.523  -6.342 -21.659  0.00  0.00    -0.045 C 
BRANCH  29  30
ATOM     30  C   UNL     1      32.104  -7.047 -20.378  0.00  0.00    +0.115 C 
BRANCH  30  31
ATOM     31  O   UNL     1      33.219  -7.092 -19.497  0.00  0.00    -0.384 OA
ATOM     32  H   UNL     1      33.265  -7.966 -19.079  0.00  0.00    +0.210 HD
ENDBRANCH  30  31
ENDBRANCH  29  30
ENDBRANCH  22  29
ENDBRANCH  20  21
ENDBRANCH  19  20
ENDBRANCH  18  19
ENDBRANCH   2  18
TORSDOF 8
ENDMDL
MODEL 6
REMARK VINA RESULT:      -9.1      0.638      1.111
REMARK  Name = 17676
REMARK  8 active torsions:
REMARK  status: ('A' for Active; 'I' for Inactive)
REMARK    1  A    between atoms: N_2  and  C_18
REMARK    2  A    between atoms: C_10  and  C_16
REMARK    3  A    between atoms: C_18  and  C_19
REMARK    4  A    between atoms: C_19  and  C_20
REMARK    5  A    between atoms: C_20  and  N_21
REMARK    6  A    between atoms: N_22  and  C_29
REMARK    7  A    between atoms: C_29  and  C_30
REMARK    8  A    between atoms: C_30  and  O_31
REMARK                            x       y       z     vdW  Elec       q    Type
REMARK                         _______ _______ _______ _____ _____    ______ ____
ROOT
ATOM      1  S   UNL     1      37.944 -23.008 -14.993  0.00  0.00    -0.084 S 
ATOM      2  N   UNL     1      34.959 -23.881 -15.024  0.00  0.00    -0.286 N 
ATOM      3  C   UNL     1      35.396 -23.143 -16.154  0.00  0.00    +0.058 C 
ATOM      4  C   UNL     1      35.584 -23.868 -13.750  0.00  0.00    +0.058 C 
ATOM      5  C   UNL     1      36.721 -22.673 -16.245  0.00  0.00    +0.043 C 
ATOM      6  C   UNL     1      36.927 -23.468 -13.604  0.00  0.00    +0.043 C 
ATOM      7  C   UNL     1      34.525 -22.816 -17.215  0.00  0.00    +0.018 C 
ATOM      8  C   UNL     1      34.887 -24.216 -12.573  0.00  0.00    +0.015 C 
ATOM      9  C   UNL     1      37.147 -21.935 -17.364  0.00  0.00    +0.008 C 
ATOM     10  C   UNL     1      34.952 -22.079 -18.323  0.00  0.00    +0.036 C 
ATOM     11  C   UNL     1      37.539 -23.450 -12.338  0.00  0.00    +0.008 C 
ATOM     12  C   UNL     1      36.265 -21.641 -18.399  0.00  0.00    +0.003 C 
ATOM     13  C   UNL     1      35.499 -24.192 -11.316  0.00  0.00    +0.001 C 
ATOM     14  C   UNL     1      36.827 -23.812 -11.200  0.00  0.00    +0.001 C 
ENDROOT
BRANCH  10  16
ATOM     15  O   UNL     1      33.026 -22.498 -19.619  0.00  0.00    -0.291 OA
ATOM     16  C   UNL     1      34.022 -21.779 -19.401  0.00  0.00    +0.174 C 
ATOM     17  C   UNL     1      34.249 -20.567 -20.297  0.00  0.00    +0.077 C 
ENDBRANCH  10  16
BRANCH   2  18
ATOM     18  C   UNL     1      33.727 -24.666 -15.164  0.00  0.00    +0.093 C 
BRANCH  18  19
ATOM     19  C   UNL     1      32.496 -23.769 -15.036  0.00  0.00    -0.001 C 
BRANCH  19  20
ATOM     20  C   UNL     1      31.157 -24.499 -15.189  0.00  0.00    -0.076 C 
BRANCH  20  21
ATOM     21  N   UNL     1      30.104 -23.611 -15.679  0.00  0.00    +0.384 N 
ATOM     22  N   UNL     1      27.367 -22.688 -15.807  0.00  0.00    +0.386 N 
ATOM     23  C   UNL     1      29.502 -22.856 -14.574  0.00  0.00    -0.101 C 
ATOM     24  C   UNL     1      29.077 -24.370 -16.401  0.00  0.00    -0.101 C 
ATOM     25  C   UNL     1      28.395 -21.927 -15.086  0.00  0.00    -0.101 C 
ATOM     26  C   UNL     1      27.970 -23.442 -16.913  0.00  0.00    -0.101 C 
ATOM     27  H   UNL     1      30.528 -22.947 -16.328  0.00  0.00    -0.080 HD
ATOM     28  H   UNL     1      26.945 -23.352 -15.159  0.00  0.00    -0.080 HD
BRANCH  22  29
ATOM     29  C   UNL     1      26.314 -21.802 -16.296  0.00  0.00    -0.045 C 
BRANCH  29  30
ATOM     30  C   UNL     1      26.451 -21.580 -17.794  0.00  0.00    +0.115 C 
BRANCH  30  31
ATOM     31  O   UNL     1      25.983 -20.275 -18.107  0.00  0.00    -0.384 OA
ATOM     32  H   UNL     1      26.567 -19.616 -17.701  0.00  0.00    +0.210 HD
ENDBRANCH  30  31
ENDBRANCH  29  30
ENDBRANCH  22  29
ENDBRANCH  20  21
ENDBRANCH  19  20
ENDBRANCH  18  19
ENDBRANCH   2  18
TORSDOF 8
ENDMDL
MODEL 7
REMARK VINA RESULT:      -9.0     12.222     15.759
REMARK  Name = 17676
REMARK  8 active torsions:
REMARK  status: ('A' for Active; 'I' for Inactive)
REMARK    1  A    between atoms: N_2  and  C_18
REMARK    2  A    between atoms: C_10  and  C_16
REMARK    3  A    between atoms: C_18  and  C_19
REMARK    4  A    between atoms: C_19  and  C_20
REMARK    5  A    between atoms: C_20  and  N_21
REMARK    6  A    between atoms: N_22  and  C_29
REMARK    7  A    between atoms: C_29  and  C_30
REMARK    8  A    between atoms: C_30  and  O_31
REMARK                            x       y       z     vdW  Elec       q    Type
REMARK                         _______ _______ _______ _____ _____    ______ ____
ROOT
ATOM      1  S   UNL     1      32.384  -7.652 -19.878  0.00  0.00    -0.084 S 
ATOM      2  N   UNL     1      32.042  -8.982 -22.668  0.00  0.00    -0.286 N 
ATOM      3  C   UNL     1      31.942  -7.568 -22.644  0.00  0.00    +0.058 C 
ATOM      4  C   UNL     1      31.837  -9.832 -21.550  0.00  0.00    +0.058 C 
ATOM      5  C   UNL     1      32.058  -6.852 -21.436  0.00  0.00    +0.043 C 
ATOM      6  C   UNL     1      31.941  -9.340 -20.235  0.00  0.00    +0.043 C 
ATOM      7  C   UNL     1      31.690  -6.817 -23.812  0.00  0.00    +0.018 C 
ATOM      8  C   UNL     1      31.486 -11.192 -21.701  0.00  0.00    +0.015 C 
ATOM      9  C   UNL     1      31.951  -5.450 -21.418  0.00  0.00    +0.008 C 
ATOM     10  C   UNL     1      31.581  -5.424 -23.788  0.00  0.00    +0.036 C 
ATOM     11  C   UNL     1      31.730 -10.186 -19.131  0.00  0.00    +0.008 C 
ATOM     12  C   UNL     1      31.714  -4.739 -22.590  0.00  0.00    +0.003 C 
ATOM     13  C   UNL     1      31.272 -12.027 -20.600  0.00  0.00    +0.001 C 
ATOM     14  C   UNL     1      31.398 -11.524 -19.314  0.00  0.00    +0.001 C 
ENDROOT
BRANCH  10  16
ATOM     15  O   UNL     1      30.307  -4.003 -25.175  0.00  0.00    -0.291 OA
ATOM     16  C   UNL     1      31.336  -4.691 -25.021  0.00  0.00    +0.174 C 
ATOM     17  C   UNL     1      32.342  -4.751 -26.165  0.00  0.00    +0.077 C 
ENDBRANCH  10  16
BRANCH   2  18
ATOM     18  C   UNL     1      32.310  -9.621 -23.962  0.00  0.00    +0.093 C 
BRANCH  18  19
ATOM     19  C   UNL     1      33.623 -10.403 -23.918  0.00  0.00    -0.001 C 
BRANCH  19  20
ATOM     20  C   UNL     1      33.733 -11.521 -24.959  0.00  0.00    -0.076 C 
BRANCH  20  21
ATOM     21  N   UNL     1      34.116 -12.796 -24.354  0.00  0.00    +0.384 N 
ATOM     22  N   UNL     1      33.546 -15.237 -22.914  0.00  0.00    +0.386 N 
ATOM     23  C   UNL     1      33.408 -13.911 -24.994  0.00  0.00    -0.101 C 
ATOM     24  C   UNL     1      33.858 -12.785 -22.910  0.00  0.00    -0.101 C 
ATOM     25  C   UNL     1      33.806 -15.247 -24.358  0.00  0.00    -0.101 C 
ATOM     26  C   UNL     1      34.256 -14.122 -22.274  0.00  0.00    -0.101 C 
ATOM     27  H   UNL     1      35.118 -12.925 -24.501  0.00  0.00    -0.080 HD
ATOM     28  H   UNL     1      32.546 -15.105 -22.768  0.00  0.00    -0.080 HD
BRANCH  22  29
ATOM     29  C   UNL     1      33.928 -16.511 -22.308  0.00  0.00    -0.045 C 
BRANCH  29  30
ATOM     30  C   UNL     1      34.813 -16.284 -21.093  0.00  0.00    +0.115 C 
BRANCH  30  31
ATOM     31  O   UNL     1      35.439 -17.513 -20.749  0.00  0.00    -0.384 OA
ATOM     32  H   UNL     1      34.876 -17.999 -20.127  0.00  0.00    +0.210 HD
ENDBRANCH  30  31
ENDBRANCH  29  30
ENDBRANCH  22  29
ENDBRANCH  20  21
ENDBRANCH  19  20
ENDBRANCH  18  19
ENDBRANCH   2  18
TORSDOF 8
ENDMDL
MODEL 8
REMARK VINA RESULT:      -8.7     10.597     13.425
REMARK  Name = 17676
REMARK  8 active torsions:
REMARK  status: ('A' for Active; 'I' for Inactive)
REMARK    1  A    between atoms: N_2  and  C_18
REMARK    2  A    between atoms: C_10  and  C_16
REMARK    3  A    between atoms: C_18  and  C_19
REMARK    4  A    between atoms: C_19  and  C_20
REMARK    5  A    between atoms: C_20  and  N_21
REMARK    6  A    between atoms: N_22  and  C_29
REMARK    7  A    between atoms: C_29  and  C_30
REMARK    8  A    between atoms: C_30  and  O_31
REMARK                            x       y       z     vdW  Elec       q    Type
REMARK                         _______ _______ _______ _____ _____    ______ ____
ROOT
ATOM      1  S   UNL     1      33.346 -15.592 -25.842  0.00  0.00    -0.084 S 
ATOM      2  N   UNL     1      34.200 -14.587 -23.026  0.00  0.00    -0.286 N 
ATOM      3  C   UNL     1      34.011 -13.581 -24.008  0.00  0.00    +0.058 C 
ATOM      4  C   UNL     1      34.469 -15.953 -23.301  0.00  0.00    +0.058 C 
ATOM      5  C   UNL     1      33.645 -13.913 -25.327  0.00  0.00    +0.043 C 
ATOM      6  C   UNL     1      34.150 -16.519 -24.550  0.00  0.00    +0.043 C 
ATOM      7  C   UNL     1      34.212 -12.213 -23.723  0.00  0.00    +0.018 C 
ATOM      8  C   UNL     1      35.098 -16.794 -22.357  0.00  0.00    +0.015 C 
ATOM      9  C   UNL     1      33.466 -12.911 -26.298  0.00  0.00    +0.008 C 
ATOM     10  C   UNL     1      34.037 -11.222 -24.693  0.00  0.00    +0.036 C 
ATOM     11  C   UNL     1      34.426 -17.871 -24.819  0.00  0.00    +0.008 C 
ATOM     12  C   UNL     1      33.661 -11.571 -25.981  0.00  0.00    +0.003 C 
ATOM     13  C   UNL     1      35.374 -18.137 -22.631  0.00  0.00    +0.001 C 
ATOM     14  C   UNL     1      35.035 -18.676 -23.862  0.00  0.00    +0.001 C 
ENDROOT
BRANCH  10  16
ATOM     15  O   UNL     1      35.367  -9.386 -24.041  0.00  0.00    -0.291 OA
ATOM     16  C   UNL     1      34.240  -9.823 -24.349  0.00  0.00    +0.174 C 
ATOM     17  C   UNL     1      33.066  -8.850 -24.358  0.00  0.00    +0.077 C 
ENDBRANCH  10  16
BRANCH   2  18
ATOM     18  C   UNL     1      34.183 -14.171 -21.618  0.00  0.00    +0.093 C 
BRANCH  18  19
ATOM     19  C   UNL     1      32.828 -14.476 -20.980  0.00  0.00    -0.001 C 
BRANCH  19  20
ATOM     20  C   UNL     1      31.728 -13.460 -21.304  0.00  0.00    -0.076 C 
BRANCH  20  21
ATOM     21  N   UNL     1      32.116 -12.099 -20.936  0.00  0.00    +0.384 N 
ATOM     22  N   UNL     1      31.536  -9.396 -20.091  0.00  0.00    +0.386 N 
ATOM     23  C   UNL     1      31.724 -11.800 -19.554  0.00  0.00    -0.101 C 
ATOM     24  C   UNL     1      31.527 -11.122 -21.859  0.00  0.00    -0.101 C 
ATOM     25  C   UNL     1      32.127 -10.372 -19.168  0.00  0.00    -0.101 C 
ATOM     26  C   UNL     1      31.930  -9.694 -21.473  0.00  0.00    -0.101 C 
ATOM     27  H   UNL     1      33.132 -12.032 -21.002  0.00  0.00    -0.080 HD
ATOM     28  H   UNL     1      30.521  -9.464 -20.025  0.00  0.00    -0.080 HD
BRANCH  22  29
ATOM     29  C   UNL     1      31.922  -8.035 -19.723  0.00  0.00    -0.045 C 
BRANCH  29  30
ATOM     30  C   UNL     1      32.326  -7.241 -20.955  0.00  0.00    +0.115 C 
BRANCH  30  31
ATOM     31  O   UNL     1      31.903  -5.894 -20.788  0.00  0.00    -0.384 OA
ATOM     32  H   UNL     1      31.577  -5.550 -21.635  0.00  0.00    +0.210 HD
ENDBRANCH  30  31
ENDBRANCH  29  30
ENDBRANCH  22  29
ENDBRANCH  20  21
ENDBRANCH  19  20
ENDBRANCH  18  19
ENDBRANCH   2  18
TORSDOF 8
ENDMDL
MODEL 9
REMARK VINA RESULT:      -8.7      2.149      4.817
REMARK  Name = 17676
REMARK  8 active torsions:
REMARK  status: ('A' for Active; 'I' for Inactive)
REMARK    1  A    between atoms: N_2  and  C_18
REMARK    2  A    between atoms: C_10  and  C_16
REMARK    3  A    between atoms: C_18  and  C_19
REMARK    4  A    between atoms: C_19  and  C_20
REMARK    5  A    between atoms: C_20  and  N_21
REMARK    6  A    between atoms: N_22  and  C_29
REMARK    7  A    between atoms: C_29  and  C_30
REMARK    8  A    between atoms: C_30  and  O_31
REMARK                            x       y       z     vdW  Elec       q    Type
REMARK                         _______ _______ _______ _____ _____    ______ ____
ROOT
ATOM      1  S   UNL     1      37.196 -21.445 -17.261  0.00  0.00    -0.084 S 
ATOM      2  N   UNL     1      34.737 -23.243 -16.636  0.00  0.00    -0.286 N 
ATOM      3  C   UNL     1      35.944 -23.603 -15.985  0.00  0.00    +0.058 C 
ATOM      4  C   UNL     1      34.650 -22.472 -17.824  0.00  0.00    +0.058 C 
ATOM      5  C   UNL     1      37.132 -22.879 -16.205  0.00  0.00    +0.043 C 
ATOM      6  C   UNL     1      35.711 -21.636 -18.226  0.00  0.00    +0.043 C 
ATOM      7  C   UNL     1      36.023 -24.716 -15.120  0.00  0.00    +0.018 C 
ATOM      8  C   UNL     1      33.523 -22.531 -18.672  0.00  0.00    +0.015 C 
ATOM      9  C   UNL     1      38.328 -23.246 -15.562  0.00  0.00    +0.008 C 
ATOM     10  C   UNL     1      37.214 -25.079 -14.487  0.00  0.00    +0.036 C 
ATOM     11  C   UNL     1      35.622 -20.880 -19.408  0.00  0.00    +0.008 C 
ATOM     12  C   UNL     1      38.368 -24.342 -14.706  0.00  0.00    +0.003 C 
ATOM     13  C   UNL     1      33.443 -21.780 -19.849  0.00  0.00    +0.001 C 
ATOM     14  C   UNL     1      34.492 -20.952 -20.215  0.00  0.00    +0.001 C 
ENDROOT
BRANCH  10  16
ATOM     15  O   UNL     1      37.254 -27.393 -14.030  0.00  0.00    -0.291 OA
ATOM     16  C   UNL     1      37.244 -26.226 -13.592  0.00  0.00    +0.174 C 
ATOM     17  C   UNL     1      37.261 -26.021 -12.081  0.00  0.00    +0.077 C 
ENDBRANCH  10  16
BRANCH   2  18
ATOM     18  C   UNL     1      33.484 -23.764 -16.076  0.00  0.00    +0.093 C 
BRANCH  18  19
ATOM     19  C   UNL     1      33.265 -23.238 -14.658  0.00  0.00    -0.001 C 
BRANCH  19  20
ATOM     20  C   UNL     1      32.276 -24.057 -13.821  0.00  0.00    -0.076 C 
BRANCH  20  21
ATOM     21  N   UNL     1      30.893 -23.843 -14.243  0.00  0.00    +0.384 N 
ATOM     22  N   UNL     1      28.852 -23.392 -16.240  0.00  0.00    +0.386 N 
ATOM     23  C   UNL     1      30.449 -24.920 -15.136  0.00  0.00    -0.101 C 
ATOM     24  C   UNL     1      30.744 -22.539 -14.899  0.00  0.00    -0.101 C 
ATOM     25  C   UNL     1      28.999 -24.695 -15.583  0.00  0.00    -0.101 C 
ATOM     26  C   UNL     1      29.296 -22.314 -15.346  0.00  0.00    -0.101 C 
ATOM     27  H   UNL     1      30.305 -23.854 -13.410  0.00  0.00    -0.080 HD
ATOM     28  H   UNL     1      29.442 -23.381 -17.071  0.00  0.00    -0.080 HD
BRANCH  22  29
ATOM     29  C   UNL     1      27.470 -23.177 -16.664  0.00  0.00    -0.045 C 
BRANCH  29  30
ATOM     30  C   UNL     1      26.798 -22.126 -15.794  0.00  0.00    +0.115 C 
BRANCH  30  31
ATOM     31  O   UNL     1      25.589 -21.720 -16.421  0.00  0.00    -0.384 OA
ATOM     32  H   UNL     1      24.956 -21.429 -15.746  0.00  0.00    +0.210 HD
ENDBRANCH  30  31
ENDBRANCH  29  30
ENDBRANCH  22  29
ENDBRANCH  20  21
ENDBRANCH  19  20
ENDBRANCH  18  19
ENDBRANCH   2  18
TORSDOF 8
ENDMDL
