MODEL 1
REMARK VINA RESULT:      -7.6      0.000      0.000
REMARK  Name = 2803
REMARK  1 active torsions:
REMARK  status: ('A' for Active; 'I' for Inactive)
REMARK    1  A    between atoms: N_2  and  C_11
REMARK                            x       y       z     vdW  Elec       q    Type
REMARK                         _______ _______ _______ _____ _____    ______ ____
ROOT
ATOM      1  N   UNL     1      35.388 -20.246 -20.271  0.00  0.00    -0.284 N 
ATOM      2  N   UNL     1      35.410 -18.512 -21.820  0.00  0.00    -0.285 N 
ATOM      3  N   UNL     1      33.395 -19.617 -21.157  0.00  0.00    -0.214 NA
ATOM      4  C   UNL     1      34.502 -21.154 -19.607  0.00  0.00    +0.085 C 
ATOM      5  C   UNL     1      33.149 -20.735 -20.196  0.00  0.00    +0.117 C 
ATOM      6  C   UNL     1      34.693 -19.430 -21.114  0.00  0.00    +0.190 C 
ATOM      7  H   UNL     1      36.363 -20.217 -20.139  0.00  0.00    +0.155 HD
ATOM      8  H   UNL     1      36.383 -18.504 -21.668  0.00  0.00    +0.155 HD
ENDROOT
BRANCH   2  11
ATOM      9 CL   UNL     1      35.079 -19.527 -24.646  0.00  0.00    -0.081 Cl
ATOM     10 CL   UNL     1      34.826 -15.770 -20.693  0.00  0.00    -0.081 Cl
ATOM     11  C   UNL     1      34.916 -17.579 -22.738  0.00  0.00    +0.072 C 
ATOM     12  C   UNL     1      34.718 -17.934 -24.081  0.00  0.00    +0.072 C 
ATOM     13  C   UNL     1      34.606 -16.272 -22.332  0.00  0.00    +0.072 C 
ATOM     14  C   UNL     1      34.225 -17.004 -24.997  0.00  0.00    +0.013 C 
ATOM     15  C   UNL     1      34.113 -15.341 -23.248  0.00  0.00    +0.013 C 
ATOM     16  C   UNL     1      33.922 -15.708 -24.580  0.00  0.00    +0.002 C 
ENDBRANCH   2  11
TORSDOF 1
ENDMDL
MODEL 2
REMARK VINA RESULT:      -7.5      0.201      2.442
REMARK  Name = 2803
REMARK  1 active torsions:
REMARK  status: ('A' for Active; 'I' for Inactive)
REMARK    1  A    between atoms: N_2  and  C_11
REMARK                            x       y       z     vdW  Elec       q    Type
REMARK                         _______ _______ _______ _____ _____    ______ ____
ROOT
ATOM      1  N   UNL     1      35.325 -20.477 -20.336  0.00  0.00    -0.284 N 
ATOM      2  N   UNL     1      35.400 -18.764 -21.907  0.00  0.00    -0.285 N 
ATOM      3  N   UNL     1      33.342 -19.660 -21.080  0.00  0.00    -0.214 NA
ATOM      4  C   UNL     1      34.407 -21.287 -19.595  0.00  0.00    +0.085 C 
ATOM      5  C   UNL     1      33.061 -20.740 -20.087  0.00  0.00    +0.117 C 
ATOM      6  C   UNL     1      34.651 -19.602 -21.136  0.00  0.00    +0.190 C 
ATOM      7  H   UNL     1      36.305 -20.542 -20.277  0.00  0.00    +0.155 HD
ATOM      8  H   UNL     1      36.378 -18.851 -21.828  0.00  0.00    +0.155 HD
ENDROOT
BRANCH   2  11
ATOM      9 CL   UNL     1      34.900 -16.036 -20.710  0.00  0.00    -0.081 Cl
ATOM     10 CL   UNL     1      35.034 -19.697 -24.757  0.00  0.00    -0.081 Cl
ATOM     11  C   UNL     1      34.932 -17.794 -22.800  0.00  0.00    +0.072 C 
ATOM     12  C   UNL     1      34.664 -16.489 -22.361  0.00  0.00    +0.072 C 
ATOM     13  C   UNL     1      34.724 -18.109 -24.152  0.00  0.00    +0.072 C 
ATOM     14  C   UNL     1      34.197 -15.521 -23.251  0.00  0.00    +0.013 C 
ATOM     15  C   UNL     1      34.257 -17.141 -25.043  0.00  0.00    +0.013 C 
ATOM     16  C   UNL     1      33.994 -15.847 -24.592  0.00  0.00    +0.002 C 
ENDBRANCH   2  11
TORSDOF 1
ENDMDL
MODEL 3
REMARK VINA RESULT:      -7.4      2.720      5.462
REMARK  Name = 2803
REMARK  1 active torsions:
REMARK  status: ('A' for Active; 'I' for Inactive)
REMARK    1  A    between atoms: N_2  and  C_11
REMARK                            x       y       z     vdW  Elec       q    Type
REMARK                         _______ _______ _______ _____ _____    ______ ____
ROOT
ATOM      1  N   UNL     1      34.236 -13.100 -23.550  0.00  0.00    -0.284 N 
ATOM      2  N   UNL     1      34.886 -15.311 -23.233  0.00  0.00    -0.285 N 
ATOM      3  N   UNL     1      32.721 -14.506 -22.612  0.00  0.00    -0.214 NA
ATOM      4  C   UNL     1      33.132 -12.210 -23.352  0.00  0.00    +0.085 C 
ATOM      5  C   UNL     1      32.099 -13.152 -22.721  0.00  0.00    +0.117 C 
ATOM      6  C   UNL     1      33.924 -14.353 -23.111  0.00  0.00    +0.190 C 
ATOM      7  H   UNL     1      35.099 -12.844 -23.946  0.00  0.00    +0.155 HD
ATOM      8  H   UNL     1      35.740 -15.026 -23.633  0.00  0.00    +0.155 HD
ENDROOT
BRANCH   2  11
ATOM      9 CL   UNL     1      34.807 -15.807 -20.254  0.00  0.00    -0.081 Cl
ATOM     10 CL   UNL     1      34.794 -17.298 -25.506  0.00  0.00    -0.081 Cl
ATOM     11  C   UNL     1      34.794 -16.653 -22.851  0.00  0.00    +0.072 C 
ATOM     12  C   UNL     1      34.749 -17.009 -21.495  0.00  0.00    +0.072 C 
ATOM     13  C   UNL     1      34.743 -17.669 -23.819  0.00  0.00    +0.072 C 
ATOM     14  C   UNL     1      34.657 -18.348 -21.114  0.00  0.00    +0.013 C 
ATOM     15  C   UNL     1      34.651 -19.008 -23.439  0.00  0.00    +0.013 C 
ATOM     16  C   UNL     1      34.608 -19.347 -22.086  0.00  0.00    +0.002 C 
ENDBRANCH   2  11
TORSDOF 1
ENDMDL
MODEL 4
REMARK VINA RESULT:      -7.4      2.730      4.967
REMARK  Name = 2803
REMARK  1 active torsions:
REMARK  status: ('A' for Active; 'I' for Inactive)
REMARK    1  A    between atoms: N_2  and  C_11
REMARK                            x       y       z     vdW  Elec       q    Type
REMARK                         _______ _______ _______ _____ _____    ______ ____
ROOT
ATOM      1  N   UNL     1      34.248 -13.087 -23.562  0.00  0.00    -0.284 N 
ATOM      2  N   UNL     1      34.897 -15.298 -23.243  0.00  0.00    -0.285 N 
ATOM      3  N   UNL     1      32.727 -14.496 -22.638  0.00  0.00    -0.214 NA
ATOM      4  C   UNL     1      33.142 -12.198 -23.372  0.00  0.00    +0.085 C 
ATOM      5  C   UNL     1      32.105 -13.142 -22.751  0.00  0.00    +0.117 C 
ATOM      6  C   UNL     1      33.934 -14.341 -23.127  0.00  0.00    +0.190 C 
ATOM      7  H   UNL     1      35.114 -12.830 -23.951  0.00  0.00    +0.155 HD
ATOM      8  H   UNL     1      35.754 -15.012 -23.636  0.00  0.00    +0.155 HD
ENDROOT
BRANCH   2  11
ATOM      9 CL   UNL     1      34.792 -17.281 -25.519  0.00  0.00    -0.081 Cl
ATOM     10 CL   UNL     1      34.829 -15.800 -20.265  0.00  0.00    -0.081 Cl
ATOM     11  C   UNL     1      34.803 -16.641 -22.864  0.00  0.00    +0.072 C 
ATOM     12  C   UNL     1      34.748 -17.655 -23.832  0.00  0.00    +0.072 C 
ATOM     13  C   UNL     1      34.764 -16.999 -21.507  0.00  0.00    +0.072 C 
ATOM     14  C   UNL     1      34.654 -18.995 -23.454  0.00  0.00    +0.013 C 
ATOM     15  C   UNL     1      34.671 -18.339 -21.128  0.00  0.00    +0.013 C 
ATOM     16  C   UNL     1      34.616 -19.336 -22.102  0.00  0.00    +0.002 C 
ENDBRANCH   2  11
TORSDOF 1
ENDMDL
MODEL 5
REMARK VINA RESULT:      -7.4      2.362      5.128
REMARK  Name = 2803
REMARK  1 active torsions:
REMARK  status: ('A' for Active; 'I' for Inactive)
REMARK    1  A    between atoms: N_2  and  C_11
REMARK                            x       y       z     vdW  Elec       q    Type
REMARK                         _______ _______ _______ _____ _____    ______ ____
ROOT
ATOM      1  N   UNL     1      34.451 -16.271 -22.642  0.00  0.00    -0.284 N 
ATOM      2  N   UNL     1      34.777 -18.459 -21.922  0.00  0.00    -0.285 N 
ATOM      3  N   UNL     1      34.858 -16.589 -20.432  0.00  0.00    -0.214 NA
ATOM      4  C   UNL     1      34.411 -14.921 -22.166  0.00  0.00    +0.085 C 
ATOM      5  C   UNL     1      34.681 -15.125 -20.670  0.00  0.00    +0.117 C 
ATOM      6  C   UNL     1      34.706 -17.132 -21.616  0.00  0.00    +0.190 C 
ATOM      7  H   UNL     1      34.315 -16.540 -23.579  0.00  0.00    +0.155 HD
ATOM      8  H   UNL     1      34.637 -18.699 -22.867  0.00  0.00    +0.155 HD
ENDROOT
BRANCH   2  11
ATOM      9 CL   UNL     1      32.326 -19.828 -20.810  0.00  0.00    -0.081 Cl
ATOM     10 CL   UNL     1      37.695 -19.045 -21.406  0.00  0.00    -0.081 Cl
ATOM     11  C   UNL     1      35.029 -19.516 -21.041  0.00  0.00    +0.072 C 
ATOM     12  C   UNL     1      33.970 -20.229 -20.461  0.00  0.00    +0.072 C 
ATOM     13  C   UNL     1      36.347 -19.883 -20.725  0.00  0.00    +0.072 C 
ATOM     14  C   UNL     1      34.221 -21.284 -19.582  0.00  0.00    +0.013 C 
ATOM     15  C   UNL     1      36.598 -20.938 -19.846  0.00  0.00    +0.013 C 
ATOM     16  C   UNL     1      35.535 -21.638 -19.276  0.00  0.00    +0.002 C 
ENDBRANCH   2  11
TORSDOF 1
ENDMDL
MODEL 6
REMARK VINA RESULT:      -7.3      2.349      5.148
REMARK  Name = 2803
REMARK  1 active torsions:
REMARK  status: ('A' for Active; 'I' for Inactive)
REMARK    1  A    between atoms: N_2  and  C_11
REMARK                            x       y       z     vdW  Elec       q    Type
REMARK                         _______ _______ _______ _____ _____    ______ ____
ROOT
ATOM      1  N   UNL     1      34.489 -16.418 -22.687  0.00  0.00    -0.284 N 
ATOM      2  N   UNL     1      34.807 -18.584 -21.902  0.00  0.00    -0.285 N 
ATOM      3  N   UNL     1      34.862 -16.675 -20.462  0.00  0.00    -0.214 NA
ATOM      4  C   UNL     1      34.439 -15.056 -22.248  0.00  0.00    +0.085 C 
ATOM      5  C   UNL     1      34.686 -15.218 -20.743  0.00  0.00    +0.117 C 
ATOM      6  C   UNL     1      34.729 -17.250 -21.634  0.00  0.00    +0.190 C 
ATOM      7  H   UNL     1      34.368 -16.712 -23.617  0.00  0.00    +0.155 HD
ATOM      8  H   UNL     1      34.682 -18.850 -22.842  0.00  0.00    +0.155 HD
ENDROOT
BRANCH   2  11
ATOM      9 CL   UNL     1      37.716 -19.126 -21.294  0.00  0.00    -0.081 Cl
ATOM     10 CL   UNL     1      32.341 -19.953 -20.821  0.00  0.00    -0.081 Cl
ATOM     11  C   UNL     1      35.047 -19.617 -20.989  0.00  0.00    +0.072 C 
ATOM     12  C   UNL     1      36.357 -19.961 -20.627  0.00  0.00    +0.072 C 
ATOM     13  C   UNL     1      33.978 -20.326 -20.418  0.00  0.00    +0.072 C 
ATOM     14  C   UNL     1      36.596 -20.990 -19.716  0.00  0.00    +0.013 C 
ATOM     15  C   UNL     1      34.217 -21.356 -19.507  0.00  0.00    +0.013 C 
ATOM     16  C   UNL     1      35.526 -21.688 -19.156  0.00  0.00    +0.002 C 
ENDBRANCH   2  11
TORSDOF 1
ENDMDL
MODEL 7
REMARK VINA RESULT:      -7.3      2.097      5.150
REMARK  Name = 2803
REMARK  1 active torsions:
REMARK  status: ('A' for Active; 'I' for Inactive)
REMARK    1  A    between atoms: N_2  and  C_11
REMARK                            x       y       z     vdW  Elec       q    Type
REMARK                         _______ _______ _______ _____ _____    ______ ____
ROOT
ATOM      1  N   UNL     1      34.609 -16.780 -23.167  0.00  0.00    -0.284 N 
ATOM      2  N   UNL     1      34.831 -18.281 -21.405  0.00  0.00    -0.285 N 
ATOM      3  N   UNL     1      34.678 -18.989 -23.685  0.00  0.00    -0.214 NA
ATOM      4  C   UNL     1      34.484 -16.724 -24.592  0.00  0.00    +0.085 C 
ATOM      5  C   UNL     1      34.535 -18.214 -24.954  0.00  0.00    +0.117 C 
ATOM      6  C   UNL     1      34.710 -18.073 -22.746  0.00  0.00    +0.190 C 
ATOM      7  H   UNL     1      34.618 -15.995 -22.574  0.00  0.00    +0.155 HD
ATOM      8  H   UNL     1      34.838 -17.478 -20.835  0.00  0.00    +0.155 HD
ENDROOT
BRANCH   2  11
ATOM      9 CL   UNL     1      32.221 -19.539 -20.547  0.00  0.00    -0.081 Cl
ATOM     10 CL   UNL     1      37.652 -19.300 -21.048  0.00  0.00    -0.081 Cl
ATOM     11  C   UNL     1      34.945 -19.511 -20.748  0.00  0.00    +0.072 C 
ATOM     12  C   UNL     1      33.802 -20.193 -20.304  0.00  0.00    +0.072 C 
ATOM     13  C   UNL     1      36.206 -20.087 -20.525  0.00  0.00    +0.072 C 
ATOM     14  C   UNL     1      33.916 -21.420 -19.649  0.00  0.00    +0.013 C 
ATOM     15  C   UNL     1      36.320 -21.314 -19.870  0.00  0.00    +0.013 C 
ATOM     16  C   UNL     1      35.175 -21.980 -19.433  0.00  0.00    +0.002 C 
ENDBRANCH   2  11
TORSDOF 1
ENDMDL
MODEL 8
REMARK VINA RESULT:      -7.2      9.466     11.329
REMARK  Name = 2803
REMARK  1 active torsions:
REMARK  status: ('A' for Active; 'I' for Inactive)
REMARK    1  A    between atoms: N_2  and  C_11
REMARK                            x       y       z     vdW  Elec       q    Type
REMARK                         _______ _______ _______ _____ _____    ______ ____
ROOT
ATOM      1  N   UNL     1      32.564  -8.679 -19.641  0.00  0.00    -0.284 N 
ATOM      2  N   UNL     1      32.721  -7.087 -21.329  0.00  0.00    -0.285 N 
ATOM      3  N   UNL     1      31.690  -9.219 -21.666  0.00  0.00    -0.214 NA
ATOM      4  C   UNL     1      32.079 -10.001 -19.379  0.00  0.00    +0.085 C 
ATOM      5  C   UNL     1      31.481 -10.374 -20.742  0.00  0.00    +0.117 C 
ATOM      6  C   UNL     1      32.310  -8.324 -20.933  0.00  0.00    +0.190 C 
ATOM      7  H   UNL     1      33.020  -8.108 -18.983  0.00  0.00    +0.155 HD
ATOM      8  H   UNL     1      33.173  -6.537 -20.649  0.00  0.00    +0.155 HD
ENDROOT
BRANCH   2  11
ATOM      9 CL   UNL     1      30.302  -5.311 -21.671  0.00  0.00    -0.081 Cl
ATOM     10 CL   UNL     1      34.866  -7.801 -23.333  0.00  0.00    -0.081 Cl
ATOM     11  C   UNL     1      32.573  -6.513 -22.596  0.00  0.00    +0.072 C 
ATOM     12  C   UNL     1      31.488  -5.669 -22.876  0.00  0.00    +0.072 C 
ATOM     13  C   UNL     1      33.508  -6.771 -23.611  0.00  0.00    +0.072 C 
ATOM     14  C   UNL     1      31.340  -5.096 -24.140  0.00  0.00    +0.013 C 
ATOM     15  C   UNL     1      33.360  -6.198 -24.875  0.00  0.00    +0.013 C 
ATOM     16  C   UNL     1      32.276  -5.361 -25.138  0.00  0.00    +0.002 C 
ENDBRANCH   2  11
TORSDOF 1
ENDMDL
MODEL 9
REMARK VINA RESULT:      -7.2      9.459     11.172
REMARK  Name = 2803
REMARK  1 active torsions:
REMARK  status: ('A' for Active; 'I' for Inactive)
REMARK    1  A    between atoms: N_2  and  C_11
REMARK                            x       y       z     vdW  Elec       q    Type
REMARK                         _______ _______ _______ _____ _____    ______ ____
ROOT
ATOM      1  N   UNL     1      32.564  -8.682 -19.671  0.00  0.00    -0.284 N 
ATOM      2  N   UNL     1      32.722  -7.089 -21.359  0.00  0.00    -0.285 N 
ATOM      3  N   UNL     1      31.704  -9.227 -21.700  0.00  0.00    -0.214 NA
ATOM      4  C   UNL     1      32.083 -10.005 -19.411  0.00  0.00    +0.085 C 
ATOM      5  C   UNL     1      31.495 -10.383 -20.776  0.00  0.00    +0.117 C 
ATOM      6  C   UNL     1      32.315  -8.329 -20.964  0.00  0.00    +0.190 C 
ATOM      7  H   UNL     1      33.012  -8.108 -19.009  0.00  0.00    +0.155 HD
ATOM      8  H   UNL     1      33.168  -6.536 -20.676  0.00  0.00    +0.155 HD
ENDROOT
BRANCH   2  11
ATOM      9 CL   UNL     1      34.880  -7.796 -23.351  0.00  0.00    -0.081 Cl
ATOM     10 CL   UNL     1      30.297  -5.324 -21.713  0.00  0.00    -0.081 Cl
ATOM     11  C   UNL     1      32.578  -6.517 -22.627  0.00  0.00    +0.072 C 
ATOM     12  C   UNL     1      33.517  -6.772 -23.637  0.00  0.00    +0.072 C 
ATOM     13  C   UNL     1      31.489  -5.678 -22.912  0.00  0.00    +0.072 C 
ATOM     14  C   UNL     1      33.373  -6.201 -24.902  0.00  0.00    +0.013 C 
ATOM     15  C   UNL     1      31.345  -5.107 -24.177  0.00  0.00    +0.013 C 
ATOM     16  C   UNL     1      32.287  -5.369 -25.171  0.00  0.00    +0.002 C 
ENDBRANCH   2  11
TORSDOF 1
ENDMDL
