MODEL 1
REMARK VINA RESULT:      -8.6      0.000      0.000
REMARK  Name = 6915836
REMARK  8 active torsions:
REMARK  status: ('A' for Active; 'I' for Inactive)
REMARK    1  A    between atoms: C_2  and  O_17
REMARK    2  A    between atoms: C_3  and  O_15
REMARK    3  A    between atoms: C_4  and  C_24
REMARK    4  A    between atoms: C_5  and  N_8
REMARK    5  A    between atoms: O_17  and  P_18
REMARK    6  A    between atoms: P_18  and  O_20
REMARK    7  A    between atoms: P_18  and  O_22
REMARK    8  A    between atoms: C_24  and  O_25
REMARK                            x       y       z     vdW  Elec       q    Type
REMARK                         _______ _______ _______ _____ _____    ______ ____
ROOT
ATOM      1  O   UNL     1      34.812 -24.952 -14.418  0.00  0.00    -0.333 OA
ATOM      2  C   UNL     1      36.954 -23.904 -14.570  0.00  0.00    +0.186 C 
ATOM      3  C   UNL     1      35.982 -23.201 -15.494  0.00  0.00    +0.188 C 
ATOM      4  C   UNL     1      36.050 -24.778 -13.699  0.00  0.00    +0.176 C 
ATOM      5  C   UNL     1      34.906 -24.262 -15.672  0.00  0.00    +0.229 C 
ENDROOT
BRANCH   5   8
ATOM      6  O   UNL     1      34.225 -23.362 -18.262  0.00  0.00    -0.252 OA
ATOM      7  O   UNL     1      29.938 -22.283 -16.958  0.00  0.00    -0.270 OA
ATOM      8  N   UNL     1      33.623 -23.743 -16.036  0.00  0.00    -0.217 N 
ATOM      9  N   UNL     1      32.091 -22.825 -17.610  0.00  0.00    -0.236 N 
ATOM     10  C   UNL     1      33.380 -23.315 -17.365  0.00  0.00    +0.315 C 
ATOM     11  C   UNL     1      32.609 -23.657 -15.085  0.00  0.00    +0.076 C 
ATOM     12  C   UNL     1      31.385 -23.186 -15.335  0.00  0.00    +0.074 C 
ATOM     13  C   UNL     1      31.054 -22.721 -16.696  0.00  0.00    +0.254 C 
ATOM     14  H   UNL     1      31.902 -22.522 -18.528  0.00  0.00    +0.159 HD
ENDBRANCH   5   8
BRANCH   3  15
ATOM     15  O   UNL     1      35.471 -22.054 -14.826  0.00  0.00    -0.378 OA
ATOM     16  H   UNL     1      36.027 -21.286 -15.029  0.00  0.00    +0.211 HD
ENDBRANCH   3  15
BRANCH   2  17
ATOM     17  O   UNL     1      37.800 -24.757 -15.338  0.00  0.00    -0.271 OA
BRANCH  17  18
ATOM     18  P   UNL     1      39.040 -25.473 -14.592  0.00  0.00    +0.473 P 
ATOM     19  O   UNL     1      39.496 -24.806 -13.327  0.00  0.00    -0.227 OA
BRANCH  18  20
ATOM     20  O   UNL     1      40.163 -25.605 -15.748  0.00  0.00    -0.303 OA
ATOM     21  H   UNL     1      40.897 -25.002 -15.555  0.00  0.00    +0.222 HD
ENDBRANCH  18  20
BRANCH  18  22
ATOM     22  O   UNL     1      38.512 -26.992 -14.410  0.00  0.00    -0.303 OA
ATOM     23  H   UNL     1      39.112 -27.599 -14.871  0.00  0.00    +0.222 HD
ENDBRANCH  18  22
ENDBRANCH  17  18
ENDBRANCH   2  17
BRANCH   4  24
ATOM     24  C   UNL     1      35.722 -24.154 -12.351  0.00  0.00    +0.169 C 
BRANCH  24  25
ATOM     25  O   UNL     1      34.846 -25.019 -11.651  0.00  0.00    -0.379 OA
ATOM     26  H   UNL     1      33.967 -24.991 -12.060  0.00  0.00    +0.211 HD
ENDBRANCH  24  25
ENDBRANCH   4  24
TORSDOF 8
ENDMDL
MODEL 2
REMARK VINA RESULT:      -8.2      2.311      3.350
REMARK  Name = 6915836
REMARK  8 active torsions:
REMARK  status: ('A' for Active; 'I' for Inactive)
REMARK    1  A    between atoms: C_2  and  O_17
REMARK    2  A    between atoms: C_3  and  O_15
REMARK    3  A    between atoms: C_4  and  C_24
REMARK    4  A    between atoms: C_5  and  N_8
REMARK    5  A    between atoms: O_17  and  P_18
REMARK    6  A    between atoms: P_18  and  O_20
REMARK    7  A    between atoms: P_18  and  O_22
REMARK    8  A    between atoms: C_24  and  O_25
REMARK                            x       y       z     vdW  Elec       q    Type
REMARK                         _______ _______ _______ _____ _____    ______ ____
ROOT
ATOM      1  O   UNL     1      34.090 -23.076 -14.973  0.00  0.00    -0.333 OA
ATOM      2  C   UNL     1      34.437 -24.521 -13.101  0.00  0.00    +0.186 C 
ATOM      3  C   UNL     1      32.953 -24.390 -13.368  0.00  0.00    +0.188 C 
ATOM      4  C   UNL     1      35.079 -23.923 -14.354  0.00  0.00    +0.176 C 
ATOM      5  C   UNL     1      32.899 -23.101 -14.174  0.00  0.00    +0.229 C 
ENDROOT
BRANCH   5   8
ATOM      6  O   UNL     1      32.982 -23.124 -16.998  0.00  0.00    -0.252 OA
ATOM      7  O   UNL     1      28.410 -22.633 -17.319  0.00  0.00    -0.270 OA
ATOM      8  N   UNL     1      31.748 -22.982 -15.018  0.00  0.00    -0.217 N 
ATOM      9  N   UNL     1      30.705 -22.879 -17.156  0.00  0.00    -0.236 N 
ATOM     10  C   UNL     1      31.895 -23.003 -16.428  0.00  0.00    +0.315 C 
ATOM     11  C   UNL     1      30.482 -22.844 -14.456  0.00  0.00    +0.076 C 
ATOM     12  C   UNL     1      29.356 -22.726 -15.165  0.00  0.00    +0.074 C 
ATOM     13  C   UNL     1      29.426 -22.739 -16.639  0.00  0.00    +0.254 C 
ATOM     14  H   UNL     1      30.785 -22.891 -18.137  0.00  0.00    +0.159 HD
ENDBRANCH   5   8
BRANCH   3  15
ATOM     15  O   UNL     1      32.533 -25.504 -14.147  0.00  0.00    -0.378 OA
ATOM     16  H   UNL     1      33.007 -25.505 -14.993  0.00  0.00    +0.211 HD
ENDBRANCH   3  15
BRANCH   2  17
ATOM     17  O   UNL     1      34.788 -23.707 -11.985  0.00  0.00    -0.271 OA
BRANCH  17  18
ATOM     18  P   UNL     1      36.047 -24.155 -11.079  0.00  0.00    +0.473 P 
ATOM     19  O   UNL     1      37.145 -23.138 -10.965  0.00  0.00    -0.227 OA
BRANCH  18  20
ATOM     20  O   UNL     1      36.486 -25.579 -11.705  0.00  0.00    -0.303 OA
ATOM     21  H   UNL     1      35.737 -25.967 -12.184  0.00  0.00    +0.222 HD
ENDBRANCH  18  20
BRANCH  18  22
ATOM     22  O   UNL     1      35.347 -24.563  -9.679  0.00  0.00    -0.303 OA
ATOM     23  H   UNL     1      36.032 -24.730  -9.013  0.00  0.00    +0.222 HD
ENDBRANCH  18  22
ENDBRANCH  17  18
ENDBRANCH   2  17
BRANCH   4  24
ATOM     24  C   UNL     1      35.500 -24.970 -15.375  0.00  0.00    +0.169 C 
BRANCH  24  25
ATOM     25  O   UNL     1      35.625 -26.220 -14.720  0.00  0.00    -0.379 OA
ATOM     26  H   UNL     1      34.876 -26.788 -14.959  0.00  0.00    +0.211 HD
ENDBRANCH  24  25
ENDBRANCH   4  24
TORSDOF 8
ENDMDL
MODEL 3
REMARK VINA RESULT:      -8.2      3.272      6.722
REMARK  Name = 6915836
REMARK  8 active torsions:
REMARK  status: ('A' for Active; 'I' for Inactive)
REMARK    1  A    between atoms: C_2  and  O_17
REMARK    2  A    between atoms: C_3  and  O_15
REMARK    3  A    between atoms: C_4  and  C_24
REMARK    4  A    between atoms: C_5  and  N_8
REMARK    5  A    between atoms: O_17  and  P_18
REMARK    6  A    between atoms: P_18  and  O_20
REMARK    7  A    between atoms: P_18  and  O_22
REMARK    8  A    between atoms: C_24  and  O_25
REMARK                            x       y       z     vdW  Elec       q    Type
REMARK                         _______ _______ _______ _____ _____    ______ ____
ROOT
ATOM      1  O   UNL     1      35.123 -25.079 -15.437  0.00  0.00    -0.333 OA
ATOM      2  C   UNL     1      33.673 -23.802 -14.029  0.00  0.00    +0.186 C 
ATOM      3  C   UNL     1      34.994 -24.026 -13.323  0.00  0.00    +0.188 C 
ATOM      4  C   UNL     1      33.965 -24.219 -15.472  0.00  0.00    +0.176 C 
ATOM      5  C   UNL     1      35.543 -25.230 -14.074  0.00  0.00    +0.229 C 
ENDROOT
BRANCH   5   8
ATOM      6  O   UNL     1      36.959 -26.406 -11.931  0.00  0.00    -0.252 OA
ATOM      7  O   UNL     1      41.026 -25.664 -13.970  0.00  0.00    -0.270 OA
ATOM      8  N   UNL     1      36.968 -25.357 -14.020  0.00  0.00    -0.217 N 
ATOM      9  N   UNL     1      38.983 -26.035 -12.947  0.00  0.00    -0.236 N 
ATOM     10  C   UNL     1      37.585 -25.963 -12.897  0.00  0.00    +0.315 C 
ATOM     11  C   UNL     1      37.752 -24.885 -15.069  0.00  0.00    +0.076 C 
ATOM     12  C   UNL     1      39.085 -24.961 -15.102  0.00  0.00    +0.074 C 
ATOM     13  C   UNL     1      39.802 -25.579 -13.970  0.00  0.00    +0.254 C 
ATOM     14  H   UNL     1      39.431 -26.453 -12.177  0.00  0.00    +0.159 HD
ENDBRANCH   5   8
BRANCH   3  15
ATOM     15  O   UNL     1      35.812 -22.878 -13.518  0.00  0.00    -0.378 OA
ATOM     16  H   UNL     1      36.504 -23.080 -14.167  0.00  0.00    +0.211 HD
ENDBRANCH   3  15
BRANCH   2  17
ATOM     17  O   UNL     1      32.697 -24.692 -13.493  0.00  0.00    -0.271 OA
BRANCH  17  18
ATOM     18  P   UNL     1      31.143 -24.407 -13.824  0.00  0.00    +0.473 P 
ATOM     19  O   UNL     1      30.851 -23.053 -14.402  0.00  0.00    -0.227 OA
BRANCH  18  20
ATOM     20  O   UNL     1      30.383 -24.745 -12.437  0.00  0.00    -0.303 OA
ATOM     21  H   UNL     1      30.764 -25.548 -12.047  0.00  0.00    +0.222 HD
ENDBRANCH  18  20
BRANCH  18  22
ATOM     22  O   UNL     1      30.750 -25.655 -14.776  0.00  0.00    -0.303 OA
ATOM     23  H   UNL     1      31.096 -26.475 -14.392  0.00  0.00    +0.222 HD
ENDBRANCH  18  22
ENDBRANCH  17  18
ENDBRANCH   2  17
BRANCH   4  24
ATOM     24  C   UNL     1      34.283 -23.047 -16.388  0.00  0.00    +0.169 C 
BRANCH  24  25
ATOM     25  O   UNL     1      35.673 -23.051 -16.665  0.00  0.00    -0.379 OA
ATOM     26  H   UNL     1      35.878 -23.773 -17.279  0.00  0.00    +0.211 HD
ENDBRANCH  24  25
ENDBRANCH   4  24
TORSDOF 8
ENDMDL
MODEL 4
REMARK VINA RESULT:      -8.1      1.908      2.753
REMARK  Name = 6915836
REMARK  8 active torsions:
REMARK  status: ('A' for Active; 'I' for Inactive)
REMARK    1  A    between atoms: C_2  and  O_17
REMARK    2  A    between atoms: C_3  and  O_15
REMARK    3  A    between atoms: C_4  and  C_24
REMARK    4  A    between atoms: C_5  and  N_8
REMARK    5  A    between atoms: O_17  and  P_18
REMARK    6  A    between atoms: P_18  and  O_20
REMARK    7  A    between atoms: P_18  and  O_22
REMARK    8  A    between atoms: C_24  and  O_25
REMARK                            x       y       z     vdW  Elec       q    Type
REMARK                         _______ _______ _______ _____ _____    ______ ____
ROOT
ATOM      1  O   UNL     1      36.311 -25.158 -12.688  0.00  0.00    -0.333 OA
ATOM      2  C   UNL     1      38.482 -24.713 -13.584  0.00  0.00    +0.186 C 
ATOM      3  C   UNL     1      37.427 -24.210 -14.546  0.00  0.00    +0.188 C 
ATOM      4  C   UNL     1      37.693 -24.997 -12.305  0.00  0.00    +0.176 C 
ATOM      5  C   UNL     1      36.208 -25.011 -14.111  0.00  0.00    +0.229 C 
ENDROOT
BRANCH   5   8
ATOM      6  O   UNL     1      34.218 -24.321 -12.228  0.00  0.00    -0.252 OA
ATOM      7  O   UNL     1      31.424 -22.684 -15.509  0.00  0.00    -0.270 OA
ATOM      8  N   UNL     1      34.955 -24.404 -14.445  0.00  0.00    -0.217 N 
ATOM      9  N   UNL     1      32.828 -23.507 -13.864  0.00  0.00    -0.236 N 
ATOM     10  C   UNL     1      34.020 -24.097 -13.425  0.00  0.00    +0.315 C 
ATOM     11  C   UNL     1      34.651 -24.115 -15.772  0.00  0.00    +0.076 C 
ATOM     12  C   UNL     1      33.509 -23.552 -16.175  0.00  0.00    +0.074 C 
ATOM     13  C   UNL     1      32.484 -23.202 -15.172  0.00  0.00    +0.254 C 
ATOM     14  H   UNL     1      32.165 -23.285 -13.171  0.00  0.00    +0.159 HD
ENDBRANCH   5   8
BRANCH   3  15
ATOM     15  O   UNL     1      37.237 -22.818 -14.323  0.00  0.00    -0.378 OA
ATOM     16  H   UNL     1      36.379 -22.546 -14.684  0.00  0.00    +0.211 HD
ENDBRANCH   3  15
BRANCH   2  17
ATOM     17  O   UNL     1      39.011 -25.946 -14.068  0.00  0.00    -0.271 OA
BRANCH  17  18
ATOM     18  P   UNL     1      40.542 -25.970 -14.580  0.00  0.00    +0.473 P 
ATOM     19  O   UNL     1      41.377 -27.095 -14.041  0.00  0.00    -0.227 OA
BRANCH  18  20
ATOM     20  O   UNL     1      41.085 -24.484 -14.246  0.00  0.00    -0.303 OA
ATOM     21  H   UNL     1      41.818 -24.267 -14.843  0.00  0.00    +0.222 HD
ENDBRANCH  18  20
BRANCH  18  22
ATOM     22  O   UNL     1      40.376 -25.953 -16.190  0.00  0.00    -0.303 OA
ATOM     23  H   UNL     1      41.247 -26.055 -16.604  0.00  0.00    +0.222 HD
ENDBRANCH  18  22
ENDBRANCH  17  18
ENDBRANCH   2  17
BRANCH   4  24
ATOM     24  C   UNL     1      37.766 -23.868 -11.287  0.00  0.00    +0.169 C 
BRANCH  24  25
ATOM     25  O   UNL     1      36.646 -23.962 -10.423  0.00  0.00    -0.379 OA
ATOM     26  H   UNL     1      36.746 -24.735  -9.846  0.00  0.00    +0.211 HD
ENDBRANCH  24  25
ENDBRANCH   4  24
TORSDOF 8
ENDMDL
MODEL 5
REMARK VINA RESULT:      -8.0      1.592      2.591
REMARK  Name = 6915836
REMARK  8 active torsions:
REMARK  status: ('A' for Active; 'I' for Inactive)
REMARK    1  A    between atoms: C_2  and  O_17
REMARK    2  A    between atoms: C_3  and  O_15
REMARK    3  A    between atoms: C_4  and  C_24
REMARK    4  A    between atoms: C_5  and  N_8
REMARK    5  A    between atoms: O_17  and  P_18
REMARK    6  A    between atoms: P_18  and  O_20
REMARK    7  A    between atoms: P_18  and  O_22
REMARK    8  A    between atoms: C_24  and  O_25
REMARK                            x       y       z     vdW  Elec       q    Type
REMARK                         _______ _______ _______ _____ _____    ______ ____
ROOT
ATOM      1  O   UNL     1      35.435 -24.196 -15.899  0.00  0.00    -0.333 OA
ATOM      2  C   UNL     1      36.057 -24.580 -13.623  0.00  0.00    +0.186 C 
ATOM      3  C   UNL     1      34.670 -23.974 -13.672  0.00  0.00    +0.188 C 
ATOM      4  C   UNL     1      36.323 -24.981 -15.075  0.00  0.00    +0.176 C 
ATOM      5  C   UNL     1      34.664 -23.334 -15.052  0.00  0.00    +0.229 C 
ENDROOT
BRANCH   5   8
ATOM      6  O   UNL     1      34.113 -23.215 -17.820  0.00  0.00    -0.252 OA
ATOM      7  O   UNL     1      29.601 -22.625 -17.083  0.00  0.00    -0.270 OA
ATOM      8  N   UNL     1      33.358 -23.151 -15.609  0.00  0.00    -0.217 N 
ATOM      9  N   UNL     1      31.867 -22.920 -17.451  0.00  0.00    -0.236 N 
ATOM     10  C   UNL     1      33.185 -23.104 -17.015  0.00  0.00    +0.315 C 
ATOM     11  C   UNL     1      32.253 -23.019 -14.772  0.00  0.00    +0.076 C 
ATOM     12  C   UNL     1      31.002 -22.844 -15.203  0.00  0.00    +0.074 C 
ATOM     13  C   UNL     1      30.740 -22.784 -16.655  0.00  0.00    +0.254 C 
ATOM     14  H   UNL     1      31.725 -22.885 -18.425  0.00  0.00    +0.159 HD
ENDBRANCH   5   8
BRANCH   3  15
ATOM     15  O   UNL     1      33.714 -25.024 -13.584  0.00  0.00    -0.378 OA
ATOM     16  H   UNL     1      34.048 -25.718 -12.995  0.00  0.00    +0.211 HD
ENDBRANCH   3  15
BRANCH   2  17
ATOM     17  O   UNL     1      36.998 -23.573 -13.256  0.00  0.00    -0.271 OA
BRANCH  17  18
ATOM     18  P   UNL     1      38.294 -24.015 -12.401  0.00  0.00    +0.473 P 
ATOM     19  O   UNL     1      39.392 -24.659 -13.196  0.00  0.00    -0.227 OA
BRANCH  18  20
ATOM     20  O   UNL     1      37.681 -24.919 -11.209  0.00  0.00    -0.303 OA
ATOM     21  H   UNL     1      38.396 -25.414 -10.779  0.00  0.00    +0.222 HD
ENDBRANCH  18  20
BRANCH  18  22
ATOM     22  O   UNL     1      38.708 -22.642 -11.651  0.00  0.00    -0.303 OA
ATOM     23  H   UNL     1      38.355 -21.886 -12.146  0.00  0.00    +0.222 HD
ENDBRANCH  18  22
ENDBRANCH  17  18
ENDBRANCH   2  17
BRANCH   4  24
ATOM     24  C   UNL     1      36.044 -26.450 -15.357  0.00  0.00    +0.169 C 
BRANCH  24  25
ATOM     25  O   UNL     1      37.135 -26.988 -16.084  0.00  0.00    -0.379 OA
ATOM     26  H   UNL     1      36.879 -27.843 -16.465  0.00  0.00    +0.211 HD
ENDBRANCH  24  25
ENDBRANCH   4  24
TORSDOF 8
ENDMDL
MODEL 6
REMARK VINA RESULT:      -7.7      2.635      3.991
REMARK  Name = 6915836
REMARK  8 active torsions:
REMARK  status: ('A' for Active; 'I' for Inactive)
REMARK    1  A    between atoms: C_2  and  O_17
REMARK    2  A    between atoms: C_3  and  O_15
REMARK    3  A    between atoms: C_4  and  C_24
REMARK    4  A    between atoms: C_5  and  N_8
REMARK    5  A    between atoms: O_17  and  P_18
REMARK    6  A    between atoms: P_18  and  O_20
REMARK    7  A    between atoms: P_18  and  O_22
REMARK    8  A    between atoms: C_24  and  O_25
REMARK                            x       y       z     vdW  Elec       q    Type
REMARK                         _______ _______ _______ _____ _____    ______ ____
ROOT
ATOM      1  O   UNL     1      33.578 -22.762 -14.778  0.00  0.00    -0.333 OA
ATOM      2  C   UNL     1      34.631 -24.305 -13.287  0.00  0.00    +0.186 C 
ATOM      3  C   UNL     1      33.163 -24.651 -13.416  0.00  0.00    +0.188 C 
ATOM      4  C   UNL     1      34.865 -23.310 -14.425  0.00  0.00    +0.176 C 
ATOM      5  C   UNL     1      32.582 -23.340 -13.922  0.00  0.00    +0.229 C 
ENDROOT
BRANCH   5   8
ATOM      6  O   UNL     1      30.316 -24.718 -12.949  0.00  0.00    -0.252 OA
ATOM      7  O   UNL     1      27.899 -23.815 -16.768  0.00  0.00    -0.270 OA
ATOM      8  N   UNL     1      31.351 -23.479 -14.639  0.00  0.00    -0.217 N 
ATOM      9  N   UNL     1      29.115 -24.268 -14.852  0.00  0.00    -0.236 N 
ATOM     10  C   UNL     1      30.270 -24.193 -14.063  0.00  0.00    +0.315 C 
ATOM     11  C   UNL     1      31.212 -22.915 -15.905  0.00  0.00    +0.076 C 
ATOM     12  C   UNL     1      30.103 -22.996 -16.644  0.00  0.00    +0.074 C 
ATOM     13  C   UNL     1      28.933 -23.723 -16.114  0.00  0.00    +0.254 C 
ATOM     14  H   UNL     1      28.352 -24.759 -14.470  0.00  0.00    +0.159 HD
ENDBRANCH   5   8
BRANCH   3  15
ATOM     15  O   UNL     1      33.025 -25.685 -14.384  0.00  0.00    -0.378 OA
ATOM     16  H   UNL     1      32.550 -25.344 -15.157  0.00  0.00    +0.211 HD
ENDBRANCH   3  15
BRANCH   2  17
ATOM     17  O   UNL     1      34.849 -23.631 -12.049  0.00  0.00    -0.271 OA
BRANCH  17  18
ATOM     18  P   UNL     1      36.073 -24.121 -11.119  0.00  0.00    +0.473 P 
ATOM     19  O   UNL     1      37.188 -23.129 -10.957  0.00  0.00    -0.227 OA
BRANCH  18  20
ATOM     20  O   UNL     1      36.501 -25.543 -11.759  0.00  0.00    -0.303 OA
ATOM     21  H   UNL     1      36.651 -26.185 -11.048  0.00  0.00    +0.222 HD
ENDBRANCH  18  20
BRANCH  18  22
ATOM     22  O   UNL     1      35.328 -24.540  -9.745  0.00  0.00    -0.303 OA
ATOM     23  H   UNL     1      35.881 -24.291  -8.989  0.00  0.00    +0.222 HD
ENDBRANCH  18  22
ENDBRANCH  17  18
ENDBRANCH   2  17
BRANCH   4  24
ATOM     24  C   UNL     1      35.458 -23.948 -15.673  0.00  0.00    +0.169 C 
BRANCH  24  25
ATOM     25  O   UNL     1      34.475 -23.947 -16.694  0.00  0.00    -0.379 OA
ATOM     26  H   UNL     1      34.329 -24.854 -17.004  0.00  0.00    +0.211 HD
ENDBRANCH  24  25
ENDBRANCH   4  24
TORSDOF 8
ENDMDL
MODEL 7
REMARK VINA RESULT:      -7.4      1.813      3.149
REMARK  Name = 6915836
REMARK  8 active torsions:
REMARK  status: ('A' for Active; 'I' for Inactive)
REMARK    1  A    between atoms: C_2  and  O_17
REMARK    2  A    between atoms: C_3  and  O_15
REMARK    3  A    between atoms: C_4  and  C_24
REMARK    4  A    between atoms: C_5  and  N_8
REMARK    5  A    between atoms: O_17  and  P_18
REMARK    6  A    between atoms: P_18  and  O_20
REMARK    7  A    between atoms: P_18  and  O_22
REMARK    8  A    between atoms: C_24  and  O_25
REMARK                            x       y       z     vdW  Elec       q    Type
REMARK                         _______ _______ _______ _____ _____    ______ ____
ROOT
ATOM      1  O   UNL     1      34.902 -22.432 -14.927  0.00  0.00    -0.333 OA
ATOM      2  C   UNL     1      36.597 -24.097 -14.662  0.00  0.00    +0.186 C 
ATOM      3  C   UNL     1      35.239 -24.765 -14.733  0.00  0.00    +0.188 C 
ATOM      4  C   UNL     1      36.313 -22.665 -15.117  0.00  0.00    +0.176 C 
ATOM      5  C   UNL     1      34.312 -23.615 -14.370  0.00  0.00    +0.229 C 
ENDROOT
BRANCH   5   8
ATOM      6  O   UNL     1      32.303 -25.126 -13.081  0.00  0.00    -0.252 OA
ATOM      7  O   UNL     1      29.198 -24.114 -16.334  0.00  0.00    -0.270 OA
ATOM      8  N   UNL     1      32.974 -23.762 -14.856  0.00  0.00    -0.217 N 
ATOM      9  N   UNL     1      30.759 -24.622 -14.702  0.00  0.00    -0.236 N 
ATOM     10  C   UNL     1      32.038 -24.545 -14.135  0.00  0.00    +0.315 C 
ATOM     11  C   UNL     1      32.588 -23.137 -16.039  0.00  0.00    +0.076 C 
ATOM     12  C   UNL     1      31.364 -23.220 -16.567  0.00  0.00    +0.074 C 
ATOM     13  C   UNL     1      30.333 -24.017 -15.875  0.00  0.00    +0.254 C 
ATOM     14  H   UNL     1      30.093 -25.161 -14.217  0.00  0.00    +0.159 HD
ENDBRANCH   5   8
BRANCH   3  15
ATOM     15  O   UNL     1      35.020 -25.205 -16.068  0.00  0.00    -0.378 OA
ATOM     16  H   UNL     1      34.479 -24.552 -16.539  0.00  0.00    +0.211 HD
ENDBRANCH   3  15
BRANCH   2  17
ATOM     17  O   UNL     1      37.032 -24.059 -13.305  0.00  0.00    -0.271 OA
BRANCH  17  18
ATOM     18  P   UNL     1      38.244 -25.031 -12.866  0.00  0.00    +0.473 P 
ATOM     19  O   UNL     1      39.583 -24.687 -13.452  0.00  0.00    -0.227 OA
BRANCH  18  20
ATOM     20  O   UNL     1      37.698 -26.513 -13.214  0.00  0.00    -0.303 OA
ATOM     21  H   UNL     1      37.540 -26.583 -14.169  0.00  0.00    +0.222 HD
ENDBRANCH  18  20
BRANCH  18  22
ATOM     22  O   UNL     1      38.172 -24.978 -11.250  0.00  0.00    -0.303 OA
ATOM     23  H   UNL     1      38.136 -25.881 -10.899  0.00  0.00    +0.222 HD
ENDBRANCH  18  22
ENDBRANCH  17  18
ENDBRANCH   2  17
BRANCH   4  24
ATOM     24  C   UNL     1      36.631 -22.423 -16.586  0.00  0.00    +0.169 C 
BRANCH  24  25
ATOM     25  O   UNL     1      37.248 -21.154 -16.715  0.00  0.00    -0.379 OA
ATOM     26  H   UNL     1      37.112 -20.818 -17.614  0.00  0.00    +0.211 HD
ENDBRANCH  24  25
ENDBRANCH   4  24
TORSDOF 8
ENDMDL
MODEL 8
REMARK VINA RESULT:      -7.4      3.084      6.432
REMARK  Name = 6915836
REMARK  8 active torsions:
REMARK  status: ('A' for Active; 'I' for Inactive)
REMARK    1  A    between atoms: C_2  and  O_17
REMARK    2  A    between atoms: C_3  and  O_15
REMARK    3  A    between atoms: C_4  and  C_24
REMARK    4  A    between atoms: C_5  and  N_8
REMARK    5  A    between atoms: O_17  and  P_18
REMARK    6  A    between atoms: P_18  and  O_20
REMARK    7  A    between atoms: P_18  and  O_22
REMARK    8  A    between atoms: C_24  and  O_25
REMARK                            x       y       z     vdW  Elec       q    Type
REMARK                         _______ _______ _______ _____ _____    ______ ____
ROOT
ATOM      1  O   UNL     1      34.915 -24.914 -15.713  0.00  0.00    -0.333 OA
ATOM      2  C   UNL     1      33.474 -23.832 -14.142  0.00  0.00    +0.186 C 
ATOM      3  C   UNL     1      34.865 -23.949 -13.554  0.00  0.00    +0.188 C 
ATOM      4  C   UNL     1      33.682 -24.171 -15.619  0.00  0.00    +0.176 C 
ATOM      5  C   UNL     1      35.461 -25.068 -14.395  0.00  0.00    +0.229 C 
ENDROOT
BRANCH   5   8
ATOM      6  O   UNL     1      36.968 -23.419 -16.125  0.00  0.00    -0.252 OA
ATOM      7  O   UNL     1      40.959 -25.114 -14.562  0.00  0.00    -0.270 OA
ATOM      8  N   UNL     1      36.891 -25.057 -14.460  0.00  0.00    -0.217 N 
ATOM      9  N   UNL     1      38.954 -24.265 -15.346  0.00  0.00    -0.236 N 
ATOM     10  C   UNL     1      37.555 -24.192 -15.365  0.00  0.00    +0.315 C 
ATOM     11  C   UNL     1      37.633 -25.898 -13.635  0.00  0.00    +0.076 C 
ATOM     12  C   UNL     1      38.967 -25.956 -13.629  0.00  0.00    +0.074 C 
ATOM     13  C   UNL     1      39.732 -25.085 -14.544  0.00  0.00    +0.254 C 
ATOM     14  H   UNL     1      39.434 -23.672 -15.967  0.00  0.00    +0.159 HD
ENDBRANCH   5   8
BRANCH   3  15
ATOM     15  O   UNL     1      35.551 -22.721 -13.767  0.00  0.00    -0.378 OA
ATOM     16  H   UNL     1      35.088 -22.006 -13.303  0.00  0.00    +0.211 HD
ENDBRANCH   3  15
BRANCH   2  17
ATOM     17  O   UNL     1      32.635 -24.830 -13.566  0.00  0.00    -0.271 OA
BRANCH  17  18
ATOM     18  P   UNL     1      31.050 -24.757 -13.864  0.00  0.00    +0.473 P 
ATOM     19  O   UNL     1      30.545 -25.744 -14.876  0.00  0.00    -0.227 OA
BRANCH  18  20
ATOM     20  O   UNL     1      30.795 -23.202 -14.227  0.00  0.00    -0.303 OA
ATOM     21  H   UNL     1      30.066 -22.860 -13.686  0.00  0.00    +0.222 HD
ENDBRANCH  18  20
BRANCH  18  22
ATOM     22  O   UNL     1      30.406 -24.906 -12.387  0.00  0.00    -0.303 OA
ATOM     23  H   UNL     1      29.522 -25.297 -12.458  0.00  0.00    +0.222 HD
ENDBRANCH  18  22
ENDBRANCH  17  18
ENDBRANCH   2  17
BRANCH   4  24
ATOM     24  C   UNL     1      33.810 -22.943 -16.509  0.00  0.00    +0.169 C 
BRANCH  24  25
ATOM     25  O   UNL     1      34.375 -23.336 -17.748  0.00  0.00    -0.379 OA
ATOM     26  H   UNL     1      34.546 -24.291 -17.737  0.00  0.00    +0.211 HD
ENDBRANCH  24  25
ENDBRANCH   4  24
TORSDOF 8
ENDMDL
MODEL 9
REMARK VINA RESULT:      -7.2     12.365     14.615
REMARK  Name = 6915836
REMARK  8 active torsions:
REMARK  status: ('A' for Active; 'I' for Inactive)
REMARK    1  A    between atoms: C_2  and  O_17
REMARK    2  A    between atoms: C_3  and  O_15
REMARK    3  A    between atoms: C_4  and  C_24
REMARK    4  A    between atoms: C_5  and  N_8
REMARK    5  A    between atoms: O_17  and  P_18
REMARK    6  A    between atoms: P_18  and  O_20
REMARK    7  A    between atoms: P_18  and  O_22
REMARK    8  A    between atoms: C_24  and  O_25
REMARK                            x       y       z     vdW  Elec       q    Type
REMARK                         _______ _______ _______ _____ _____    ______ ____
ROOT
ATOM      1  O   UNL     1      32.286 -13.839 -22.073  0.00  0.00    -0.333 OA
ATOM      2  C   UNL     1      33.478 -13.935 -24.143  0.00  0.00    +0.186 C 
ATOM      3  C   UNL     1      33.254 -12.488 -23.757  0.00  0.00    +0.188 C 
ATOM      4  C   UNL     1      33.124 -14.703 -22.869  0.00  0.00    +0.176 C 
ATOM      5  C   UNL     1      32.091 -12.608 -22.783  0.00  0.00    +0.229 C 
ENDROOT
BRANCH   5   8
ATOM      6  O   UNL     1      32.209  -9.876 -23.494  0.00  0.00    -0.252 OA
ATOM      7  O   UNL     1      31.694  -8.525 -19.117  0.00  0.00    -0.270 OA
ATOM      8  N   UNL     1      31.990 -11.525 -21.852  0.00  0.00    -0.217 N 
ATOM      9  N   UNL     1      31.953  -9.206 -21.314  0.00  0.00    -0.236 N 
ATOM     10  C   UNL     1      32.062 -10.185 -22.310  0.00  0.00    +0.315 C 
ATOM     11  C   UNL     1      31.821 -11.784 -20.494  0.00  0.00    +0.076 C 
ATOM     12  C   UNL     1      31.719 -10.839 -19.557  0.00  0.00    +0.074 C 
ATOM     13  C   UNL     1      31.785  -9.418 -19.954  0.00  0.00    +0.254 C 
ATOM     14  H   UNL     1      32.001  -8.268 -21.611  0.00  0.00    +0.159 HD
ENDBRANCH   5   8
BRANCH   3  15
ATOM     15  O   UNL     1      34.424 -12.005 -23.109  0.00  0.00    -0.378 OA
ATOM     16  H   UNL     1      34.220 -11.178 -22.646  0.00  0.00    +0.211 HD
ENDBRANCH   3  15
BRANCH   2  17
ATOM     17  O   UNL     1      32.549 -14.300 -25.161  0.00  0.00    -0.271 OA
BRANCH  17  18
ATOM     18  P   UNL     1      33.121 -14.987 -26.505  0.00  0.00    +0.473 P 
ATOM     19  O   UNL     1      33.617 -14.030 -27.550  0.00  0.00    -0.227 OA
BRANCH  18  20
ATOM     20  O   UNL     1      31.925 -15.968 -26.977  0.00  0.00    -0.303 OA
ATOM     21  H   UNL     1      31.385 -15.519 -27.647  0.00  0.00    +0.222 HD
ENDBRANCH  18  20
BRANCH  18  22
ATOM     22  O   UNL     1      34.236 -16.010 -25.932  0.00  0.00    -0.303 OA
ATOM     23  H   UNL     1      34.815 -16.295 -26.656  0.00  0.00    +0.222 HD
ENDBRANCH  18  22
ENDBRANCH  17  18
ENDBRANCH   2  17
BRANCH   4  24
ATOM     24  C   UNL     1      34.338 -15.076 -22.031  0.00  0.00    +0.169 C 
BRANCH  24  25
ATOM     25  O   UNL     1      35.263 -15.768 -22.852  0.00  0.00    -0.379 OA
ATOM     26  H   UNL     1      36.083 -15.254 -22.920  0.00  0.00    +0.211 HD
ENDBRANCH  24  25
ENDBRANCH   4  24
TORSDOF 8
ENDMDL
