MODEL 1
REMARK VINA RESULT:      -8.0      0.000      0.000
REMARK  Name = 3111
REMARK  4 active torsions:
REMARK  status: ('A' for Active; 'I' for Inactive)
REMARK    1  A    between atoms: N_3  and  C_9
REMARK    2  A    between atoms: C_4  and  N_15
REMARK    3  A    between atoms: N_15  and  C_17
REMARK    4  A    between atoms: C_17  and  S_18
REMARK                            x       y       z     vdW  Elec       q    Type
REMARK                         _______ _______ _______ _____ _____    ______ ____
ROOT
ATOM      1  O   UNL     1      35.202 -24.801 -16.047  0.00  0.00    -0.264 OA
ATOM      2  N   UNL     1      35.145 -23.742 -12.747  0.00  0.00    -0.265 N 
ATOM      3  N   UNL     1      34.446 -24.181 -13.881  0.00  0.00    -0.213 N 
ATOM      4  C   UNL     1      36.709 -23.990 -14.379  0.00  0.00    +0.121 A 
ATOM      5  C   UNL     1      36.481 -23.598 -13.117  0.00  0.00    +0.073 A 
ATOM      6  C   UNL     1      35.373 -24.414 -14.902  0.00  0.00    +0.293 A 
ATOM      7  C   UNL     1      37.502 -23.104 -12.148  0.00  0.00    +0.053 C 
ATOM      8  C   UNL     1      34.784 -24.299 -11.447  0.00  0.00    +0.152 C 
ENDROOT
BRANCH   3   9
ATOM      9  C   UNL     1      33.041 -24.065 -14.023  0.00  0.00    +0.084 C 
ATOM     10  C   UNL     1      32.479 -22.882 -14.517  0.00  0.00    +0.019 C 
ATOM     11  C   UNL     1      32.206 -25.130 -13.671  0.00  0.00    +0.019 C 
ATOM     12  C   UNL     1      31.096 -22.768 -14.658  0.00  0.00    +0.002 C 
ATOM     13  C   UNL     1      30.823 -25.015 -13.811  0.00  0.00    +0.002 C 
ATOM     14  C   UNL     1      30.268 -23.834 -14.305  0.00  0.00    +0.000 C 
ENDBRANCH   3   9
BRANCH   4  15
ATOM     15  N   UNL     1      37.812 -24.057 -15.152  0.00  0.00    -0.281 N 
ATOM     16  C   UNL     1      38.235 -22.927 -15.986  0.00  0.00    +0.114 C 
BRANCH  15  17
ATOM     17  C   UNL     1      38.562 -25.307 -15.340  0.00  0.00    +0.253 C 
BRANCH  17  18
ATOM     18  S   UNL     1      39.747 -25.637 -14.040  0.00  0.00    +0.042 S 
ATOM     19  O   UNL     1      40.406 -26.971 -14.705  0.00  0.00    -0.068 OA
ATOM     20  O   UNL     1      40.741 -24.582 -14.033  0.00  0.00    -0.068 OA
ATOM     21  O   UNL     1      39.029 -26.023 -12.843  0.00  0.00    -0.068 OA
ENDBRANCH  17  18
ENDBRANCH  15  17
ENDBRANCH   4  15
TORSDOF 4
ENDMDL
MODEL 2
REMARK VINA RESULT:      -7.8     16.273     17.950
REMARK  Name = 3111
REMARK  4 active torsions:
REMARK  status: ('A' for Active; 'I' for Inactive)
REMARK    1  A    between atoms: N_3  and  C_9
REMARK    2  A    between atoms: C_4  and  N_15
REMARK    3  A    between atoms: N_15  and  C_17
REMARK    4  A    between atoms: C_17  and  S_18
REMARK                            x       y       z     vdW  Elec       q    Type
REMARK                         _______ _______ _______ _____ _____    ______ ____
ROOT
ATOM      1  O   UNL     1      31.408 -11.506 -22.424  0.00  0.00    -0.264 OA
ATOM      2  N   UNL     1      34.288 -10.787 -24.215  0.00  0.00    -0.265 N 
ATOM      3  N   UNL     1      33.372 -11.738 -23.744  0.00  0.00    -0.213 N 
ATOM      4  C   UNL     1      32.795  -9.631 -22.948  0.00  0.00    +0.121 A 
ATOM      5  C   UNL     1      33.924  -9.558 -23.668  0.00  0.00    +0.073 A 
ATOM      6  C   UNL     1      32.388 -11.070 -23.008  0.00  0.00    +0.293 A 
ATOM      7  C   UNL     1      34.721  -8.326 -23.938  0.00  0.00    +0.053 C 
ATOM      8  C   UNL     1      34.745 -10.886 -25.598  0.00  0.00    +0.152 C 
ENDROOT
BRANCH   3   9
ATOM      9  C   UNL     1      33.624 -13.133 -23.747  0.00  0.00    +0.084 C 
ATOM     10  C   UNL     1      33.290 -13.907 -24.864  0.00  0.00    +0.019 C 
ATOM     11  C   UNL     1      34.209 -13.746 -22.634  0.00  0.00    +0.019 C 
ATOM     12  C   UNL     1      33.539 -15.279 -24.867  0.00  0.00    +0.002 C 
ATOM     13  C   UNL     1      34.457 -15.118 -22.638  0.00  0.00    +0.002 C 
ATOM     14  C   UNL     1      34.122 -15.885 -23.755  0.00  0.00    +0.000 C 
ENDBRANCH   3   9
BRANCH   4  15
ATOM     15  N   UNL     1      32.061  -8.727 -22.267  0.00  0.00    -0.281 N 
ATOM     16  C   UNL     1      32.189  -8.571 -20.814  0.00  0.00    +0.114 C 
BRANCH  15  17
ATOM     17  C   UNL     1      30.975  -7.965 -22.899  0.00  0.00    +0.253 C 
BRANCH  17  18
ATOM     18  S   UNL     1      31.248  -6.197 -22.907  0.00  0.00    +0.042 S 
ATOM     19  O   UNL     1      31.005  -5.964 -24.502  0.00  0.00    -0.068 OA
ATOM     20  O   UNL     1      30.175  -5.554 -22.175  0.00  0.00    -0.068 OA
ATOM     21  O   UNL     1      32.641  -5.940 -22.608  0.00  0.00    -0.068 OA
ENDBRANCH  17  18
ENDBRANCH  15  17
ENDBRANCH   4  15
TORSDOF 4
ENDMDL
MODEL 3
REMARK VINA RESULT:      -7.7     15.070     16.662
REMARK  Name = 3111
REMARK  4 active torsions:
REMARK  status: ('A' for Active; 'I' for Inactive)
REMARK    1  A    between atoms: N_3  and  C_9
REMARK    2  A    between atoms: C_4  and  N_15
REMARK    3  A    between atoms: N_15  and  C_17
REMARK    4  A    between atoms: C_17  and  S_18
REMARK                            x       y       z     vdW  Elec       q    Type
REMARK                         _______ _______ _______ _____ _____    ______ ____
ROOT
ATOM      1  O   UNL     1      33.897 -10.900 -24.207  0.00  0.00    -0.264 OA
ATOM      2  N   UNL     1      32.076 -12.858 -22.002  0.00  0.00    -0.265 N 
ATOM      3  N   UNL     1      32.994 -12.775 -23.059  0.00  0.00    -0.213 N 
ATOM      4  C   UNL     1      32.249 -10.646 -22.495  0.00  0.00    +0.121 A 
ATOM      5  C   UNL     1      31.628 -11.565 -21.741  0.00  0.00    +0.073 A 
ATOM      6  C   UNL     1      33.189 -11.423 -23.362  0.00  0.00    +0.293 A 
ATOM      7  C   UNL     1      30.604 -11.299 -20.689  0.00  0.00    +0.053 C 
ATOM      8  C   UNL     1      32.354 -13.789 -20.911  0.00  0.00    +0.152 C 
ENDROOT
BRANCH   3   9
ATOM      9  C   UNL     1      33.361 -13.883 -23.862  0.00  0.00    +0.084 C 
ATOM     10  C   UNL     1      34.274 -14.828 -23.382  0.00  0.00    +0.019 C 
ATOM     11  C   UNL     1      32.815 -14.040 -25.140  0.00  0.00    +0.019 C 
ATOM     12  C   UNL     1      34.636 -15.920 -24.172  0.00  0.00    +0.002 C 
ATOM     13  C   UNL     1      33.177 -15.130 -25.930  0.00  0.00    +0.002 C 
ATOM     14  C   UNL     1      34.088 -16.071 -25.446  0.00  0.00    +0.000 C 
ENDBRANCH   3   9
BRANCH   4  15
ATOM     15  N   UNL     1      32.172  -9.302 -22.582  0.00  0.00    -0.281 N 
ATOM     16  C   UNL     1      31.313  -8.644 -23.572  0.00  0.00    +0.114 C 
BRANCH  15  17
ATOM     17  C   UNL     1      33.059  -8.415 -21.816  0.00  0.00    +0.253 C 
BRANCH  17  18
ATOM     18  S   UNL     1      32.263  -7.641 -20.413  0.00  0.00    +0.042 S 
ATOM     19  O   UNL     1      33.607  -6.997 -19.752  0.00  0.00    -0.068 OA
ATOM     20  O   UNL     1      31.419  -6.564 -20.889  0.00  0.00    -0.068 OA
ATOM     21  O   UNL     1      31.764  -8.675 -19.531  0.00  0.00    -0.068 OA
ENDBRANCH  17  18
ENDBRANCH  15  17
ENDBRANCH   4  15
TORSDOF 4
ENDMDL
MODEL 4
REMARK VINA RESULT:      -7.6      3.606      4.949
REMARK  Name = 3111
REMARK  4 active torsions:
REMARK  status: ('A' for Active; 'I' for Inactive)
REMARK    1  A    between atoms: N_3  and  C_9
REMARK    2  A    between atoms: C_4  and  N_15
REMARK    3  A    between atoms: N_15  and  C_17
REMARK    4  A    between atoms: C_17  and  S_18
REMARK                            x       y       z     vdW  Elec       q    Type
REMARK                         _______ _______ _______ _____ _____    ______ ____
ROOT
ATOM      1  O   UNL     1      37.297 -22.428 -17.265  0.00  0.00    -0.264 OA
ATOM      2  N   UNL     1      33.907 -23.050 -16.889  0.00  0.00    -0.265 N 
ATOM      3  N   UNL     1      34.955 -22.527 -17.661  0.00  0.00    -0.213 N 
ATOM      4  C   UNL     1      35.788 -23.317 -15.639  0.00  0.00    +0.121 A 
ATOM      5  C   UNL     1      34.455 -23.459 -15.675  0.00  0.00    +0.073 A 
ATOM      6  C   UNL     1      36.151 -22.726 -16.965  0.00  0.00    +0.293 A 
ATOM      7  C   UNL     1      33.599 -24.033 -14.595  0.00  0.00    +0.053 C 
ATOM      8  C   UNL     1      32.881 -23.847 -17.555  0.00  0.00    +0.152 C 
ENDROOT
BRANCH   3   9
ATOM      9  C   UNL     1      34.753 -21.666 -18.768  0.00  0.00    +0.084 C 
ATOM     10  C   UNL     1      33.456 -21.365 -19.199  0.00  0.00    +0.019 C 
ATOM     11  C   UNL     1      35.848 -21.111 -19.438  0.00  0.00    +0.019 C 
ATOM     12  C   UNL     1      33.257 -20.517 -20.287  0.00  0.00    +0.002 C 
ATOM     13  C   UNL     1      35.648 -20.263 -20.527  0.00  0.00    +0.002 C 
ATOM     14  C   UNL     1      34.353 -19.966 -20.953  0.00  0.00    +0.000 C 
ENDBRANCH   3   9
BRANCH   4  15
ATOM     15  N   UNL     1      36.732 -23.590 -14.716  0.00  0.00    -0.281 N 
ATOM     16  C   UNL     1      36.873 -22.783 -13.499  0.00  0.00    +0.114 C 
BRANCH  15  17
ATOM     17  C   UNL     1      37.781 -24.595 -14.941  0.00  0.00    +0.253 C 
BRANCH  17  18
ATOM     18  S   UNL     1      37.259 -26.269 -14.585  0.00  0.00    +0.042 S 
ATOM     19  O   UNL     1      38.712 -26.979 -14.791  0.00  0.00    -0.068 OA
ATOM     20  O   UNL     1      36.893 -26.359 -13.186  0.00  0.00    -0.068 OA
ATOM     21  O   UNL     1      36.373 -26.716 -15.640  0.00  0.00    -0.068 OA
ENDBRANCH  17  18
ENDBRANCH  15  17
ENDBRANCH   4  15
TORSDOF 4
ENDMDL
MODEL 5
REMARK VINA RESULT:      -7.4      2.937      4.453
REMARK  Name = 3111
REMARK  4 active torsions:
REMARK  status: ('A' for Active; 'I' for Inactive)
REMARK    1  A    between atoms: N_3  and  C_9
REMARK    2  A    between atoms: C_4  and  N_15
REMARK    3  A    between atoms: N_15  and  C_17
REMARK    4  A    between atoms: C_17  and  S_18
REMARK                            x       y       z     vdW  Elec       q    Type
REMARK                         _______ _______ _______ _____ _____    ______ ____
ROOT
ATOM      1  O   UNL     1      36.578 -23.749 -16.179  0.00  0.00    -0.264 OA
ATOM      2  N   UNL     1      33.178 -23.093 -16.009  0.00  0.00    -0.265 N 
ATOM      3  N   UNL     1      34.374 -23.060 -16.741  0.00  0.00    -0.213 N 
ATOM      4  C   UNL     1      34.786 -23.870 -14.602  0.00  0.00    +0.121 A 
ATOM      5  C   UNL     1      33.493 -23.537 -14.726  0.00  0.00    +0.073 A 
ATOM      6  C   UNL     1      35.391 -23.591 -15.942  0.00  0.00    +0.293 A 
ATOM      7  C   UNL     1      32.446 -23.653 -13.670  0.00  0.00    +0.053 C 
ATOM      8  C   UNL     1      31.963 -23.545 -16.681  0.00  0.00    +0.152 C 
ENDROOT
BRANCH   3   9
ATOM      9  C   UNL     1      34.539 -22.306 -17.930  0.00  0.00    +0.084 C 
ATOM     10  C   UNL     1      35.810 -21.864 -18.313  0.00  0.00    +0.019 C 
ATOM     11  C   UNL     1      33.433 -21.998 -18.729  0.00  0.00    +0.019 C 
ATOM     12  C   UNL     1      35.973 -21.123 -19.482  0.00  0.00    +0.002 C 
ATOM     13  C   UNL     1      33.596 -21.256 -19.898  0.00  0.00    +0.002 C 
ATOM     14  C   UNL     1      34.867 -20.818 -20.276  0.00  0.00    +0.000 C 
ENDBRANCH   3   9
BRANCH   4  15
ATOM     15  N   UNL     1      35.532 -24.358 -13.589  0.00  0.00    -0.281 N 
ATOM     16  C   UNL     1      35.818 -23.560 -12.392  0.00  0.00    +0.114 C 
BRANCH  15  17
ATOM     17  C   UNL     1      36.242 -25.641 -13.687  0.00  0.00    +0.253 C 
BRANCH  17  18
ATOM     18  S   UNL     1      37.989 -25.526 -13.318  0.00  0.00    +0.042 S 
ATOM     19  O   UNL     1      38.481 -26.726 -14.305  0.00  0.00    -0.068 OA
ATOM     20  O   UNL     1      38.494 -24.267 -13.829  0.00  0.00    -0.068 OA
ATOM     21  O   UNL     1      38.204 -25.938 -11.946  0.00  0.00    -0.068 OA
ENDBRANCH  17  18
ENDBRANCH  15  17
ENDBRANCH   4  15
TORSDOF 4
ENDMDL
MODEL 6
REMARK VINA RESULT:      -7.3     14.449     15.929
REMARK  Name = 3111
REMARK  4 active torsions:
REMARK  status: ('A' for Active; 'I' for Inactive)
REMARK    1  A    between atoms: N_3  and  C_9
REMARK    2  A    between atoms: C_4  and  N_15
REMARK    3  A    between atoms: N_15  and  C_17
REMARK    4  A    between atoms: C_17  and  S_18
REMARK                            x       y       z     vdW  Elec       q    Type
REMARK                         _______ _______ _______ _____ _____    ______ ____
ROOT
ATOM      1  O   UNL     1      34.172 -11.853 -24.910  0.00  0.00    -0.264 OA
ATOM      2  N   UNL     1      32.157 -11.160 -22.176  0.00  0.00    -0.265 N 
ATOM      3  N   UNL     1      32.828 -10.705 -23.321  0.00  0.00    -0.213 N 
ATOM      4  C   UNL     1      33.266 -12.965 -22.999  0.00  0.00    +0.121 A 
ATOM      5  C   UNL     1      32.495 -12.500 -22.005  0.00  0.00    +0.073 A 
ATOM      6  C   UNL     1      33.477 -11.796 -23.907  0.00  0.00    +0.293 A 
ATOM      7  C   UNL     1      31.978 -13.287 -20.847  0.00  0.00    +0.053 C 
ATOM      8  C   UNL     1      30.793 -10.695 -21.937  0.00  0.00    +0.152 C 
ENDROOT
BRANCH   3   9
ATOM      9  C   UNL     1      33.058  -9.334 -23.597  0.00  0.00    +0.084 C 
ATOM     10  C   UNL     1      34.366  -8.840 -23.663  0.00  0.00    +0.019 C 
ATOM     11  C   UNL     1      31.982  -8.466 -23.803  0.00  0.00    +0.019 C 
ATOM     12  C   UNL     1      34.593  -7.491 -23.935  0.00  0.00    +0.002 C 
ATOM     13  C   UNL     1      32.209  -7.117 -24.074  0.00  0.00    +0.002 C 
ATOM     14  C   UNL     1      33.515  -6.629 -24.140  0.00  0.00    +0.000 C 
ENDBRANCH   3   9
BRANCH   4  15
ATOM     15  N   UNL     1      33.809 -14.169 -23.275  0.00  0.00    -0.281 N 
ATOM     16  C   UNL     1      33.336 -14.985 -24.398  0.00  0.00    +0.114 C 
BRANCH  15  17
ATOM     17  C   UNL     1      34.783 -14.813 -22.382  0.00  0.00    +0.253 C 
BRANCH  17  18
ATOM     18  S   UNL     1      34.197 -16.345 -21.667  0.00  0.00    +0.042 S 
ATOM     19  O   UNL     1      35.120 -16.304 -20.324  0.00  0.00    -0.068 OA
ATOM     20  O   UNL     1      32.810 -16.183 -21.282  0.00  0.00    -0.068 OA
ATOM     21  O   UNL     1      34.638 -17.446 -22.498  0.00  0.00    -0.068 OA
ENDBRANCH  17  18
ENDBRANCH  15  17
ENDBRANCH   4  15
TORSDOF 4
ENDMDL
MODEL 7
REMARK VINA RESULT:      -7.3     15.558     17.169
REMARK  Name = 3111
REMARK  4 active torsions:
REMARK  status: ('A' for Active; 'I' for Inactive)
REMARK    1  A    between atoms: N_3  and  C_9
REMARK    2  A    between atoms: C_4  and  N_15
REMARK    3  A    between atoms: N_15  and  C_17
REMARK    4  A    between atoms: C_17  and  S_18
REMARK                            x       y       z     vdW  Elec       q    Type
REMARK                         _______ _______ _______ _____ _____    ______ ____
ROOT
ATOM      1  O   UNL     1      34.548 -11.332 -24.859  0.00  0.00    -0.264 OA
ATOM      2  N   UNL     1      32.378 -12.706 -22.532  0.00  0.00    -0.265 N 
ATOM      3  N   UNL     1      33.348 -12.892 -23.528  0.00  0.00    -0.213 N 
ATOM      4  C   UNL     1      32.869 -10.628 -23.311  0.00  0.00    +0.121 A 
ATOM      5  C   UNL     1      32.095 -11.343 -22.481  0.00  0.00    +0.073 A 
ATOM      6  C   UNL     1      33.736 -11.634 -23.998  0.00  0.00    +0.293 A 
ATOM      7  C   UNL     1      31.068 -10.801 -21.545  0.00  0.00    +0.053 C 
ATOM      8  C   UNL     1      32.476 -13.497 -21.308  0.00  0.00    +0.152 C 
ENDROOT
BRANCH   3   9
ATOM      9  C   UNL     1      33.601 -14.143 -24.145  0.00  0.00    +0.084 C 
ATOM     10  C   UNL     1      34.456 -15.068 -23.537  0.00  0.00    +0.019 C 
ATOM     11  C   UNL     1      32.999 -14.460 -25.367  0.00  0.00    +0.019 C 
ATOM     12  C   UNL     1      34.705 -16.298 -24.145  0.00  0.00    +0.002 C 
ATOM     13  C   UNL     1      33.248 -15.690 -25.974  0.00  0.00    +0.002 C 
ATOM     14  C   UNL     1      34.102 -16.610 -25.363  0.00  0.00    +0.000 C 
ENDBRANCH   3   9
BRANCH   4  15
ATOM     15  N   UNL     1      32.978  -9.311 -23.585  0.00  0.00    -0.281 N 
ATOM     16  C   UNL     1      34.279  -8.634 -23.596  0.00  0.00    +0.114 C 
BRANCH  15  17
ATOM     17  C   UNL     1      31.802  -8.440 -23.723  0.00  0.00    +0.253 C 
BRANCH  17  18
ATOM     18  S   UNL     1      31.843  -7.005 -22.655  0.00  0.00    +0.042 S 
ATOM     19  O   UNL     1      30.281  -6.576 -22.837  0.00  0.00    -0.068 OA
ATOM     20  O   UNL     1      32.048  -7.442 -21.289  0.00  0.00    -0.068 OA
ATOM     21  O   UNL     1      32.675  -5.991 -23.270  0.00  0.00    -0.068 OA
ENDBRANCH  17  18
ENDBRANCH  15  17
ENDBRANCH   4  15
TORSDOF 4
ENDMDL
MODEL 8
REMARK VINA RESULT:      -7.3     15.286     16.763
REMARK  Name = 3111
REMARK  4 active torsions:
REMARK  status: ('A' for Active; 'I' for Inactive)
REMARK    1  A    between atoms: N_3  and  C_9
REMARK    2  A    between atoms: C_4  and  N_15
REMARK    3  A    between atoms: N_15  and  C_17
REMARK    4  A    between atoms: C_17  and  S_18
REMARK                            x       y       z     vdW  Elec       q    Type
REMARK                         _______ _______ _______ _____ _____    ______ ____
ROOT
ATOM      1  O   UNL     1      31.739 -11.142 -21.498  0.00  0.00    -0.264 OA
ATOM      2  N   UNL     1      33.673  -9.651 -23.958  0.00  0.00    -0.265 N 
ATOM      3  N   UNL     1      32.833  -9.516 -22.843  0.00  0.00    -0.213 N 
ATOM      4  C   UNL     1      33.028 -11.762 -23.413  0.00  0.00    +0.121 A 
ATOM      5  C   UNL     1      33.712 -11.005 -24.283  0.00  0.00    +0.073 A 
ATOM      6  C   UNL     1      32.457 -10.796 -22.423  0.00  0.00    +0.293 A 
ATOM      7  C   UNL     1      34.492 -11.496 -25.457  0.00  0.00    +0.053 C 
ATOM      8  C   UNL     1      34.878  -8.829 -24.026  0.00  0.00    +0.152 C 
ENDROOT
BRANCH   3   9
ATOM      9  C   UNL     1      32.232  -8.290 -22.464  0.00  0.00    +0.084 C 
ATOM     10  C   UNL     1      31.282  -7.685 -23.294  0.00  0.00    +0.019 C 
ATOM     11  C   UNL     1      32.584  -7.676 -21.258  0.00  0.00    +0.019 C 
ATOM     12  C   UNL     1      30.690  -6.479 -22.921  0.00  0.00    +0.002 C 
ATOM     13  C   UNL     1      31.993  -6.469 -20.885  0.00  0.00    +0.002 C 
ATOM     14  C   UNL     1      31.045  -5.870 -21.717  0.00  0.00    +0.000 C 
ENDBRANCH   3   9
BRANCH   4  15
ATOM     15  N   UNL     1      32.805 -13.087 -23.301  0.00  0.00    -0.281 N 
ATOM     16  C   UNL     1      32.342 -13.887 -24.440  0.00  0.00    +0.114 C 
BRANCH  15  17
ATOM     17  C   UNL     1      32.844 -13.782 -22.006  0.00  0.00    +0.253 C 
BRANCH  17  18
ATOM     18  S   UNL     1      34.244 -14.881 -21.823  0.00  0.00    +0.042 S 
ATOM     19  O   UNL     1      33.394 -16.264 -21.673  0.00  0.00    -0.068 OA
ATOM     20  O   UNL     1      34.976 -14.920 -23.073  0.00  0.00    -0.068 OA
ATOM     21  O   UNL     1      34.896 -14.600 -20.561  0.00  0.00    -0.068 OA
ENDBRANCH  17  18
ENDBRANCH  15  17
ENDBRANCH   4  15
TORSDOF 4
ENDMDL
MODEL 9
REMARK VINA RESULT:      -7.3      3.625      5.261
REMARK  Name = 3111
REMARK  4 active torsions:
REMARK  status: ('A' for Active; 'I' for Inactive)
REMARK    1  A    between atoms: N_3  and  C_9
REMARK    2  A    between atoms: C_4  and  N_15
REMARK    3  A    between atoms: N_15  and  C_17
REMARK    4  A    between atoms: C_17  and  S_18
REMARK                            x       y       z     vdW  Elec       q    Type
REMARK                         _______ _______ _______ _____ _____    ______ ____
ROOT
ATOM      1  O   UNL     1      37.527 -22.930 -16.689  0.00  0.00    -0.264 OA
ATOM      2  N   UNL     1      34.064 -23.021 -16.578  0.00  0.00    -0.265 N 
ATOM      3  N   UNL     1      35.236 -22.692 -17.275  0.00  0.00    -0.213 N 
ATOM      4  C   UNL     1      35.778 -23.518 -15.170  0.00  0.00    +0.121 A 
ATOM      5  C   UNL     1      34.446 -23.460 -15.312  0.00  0.00    +0.073 A 
ATOM      6  C   UNL     1      36.330 -23.041 -16.476  0.00  0.00    +0.293 A 
ATOM      7  C   UNL     1      33.431 -23.855 -14.292  0.00  0.00    +0.053 C 
ATOM      8  C   UNL     1      32.983 -23.680 -17.305  0.00  0.00    +0.152 C 
ENDROOT
BRANCH   3   9
ATOM      9  C   UNL     1      35.255 -21.854 -18.417  0.00  0.00    +0.084 C 
ATOM     10  C   UNL     1      34.061 -21.517 -19.063  0.00  0.00    +0.019 C 
ATOM     11  C   UNL     1      36.467 -21.359 -18.908  0.00  0.00    +0.019 C 
ATOM     12  C   UNL     1      34.079 -20.692 -20.187  0.00  0.00    +0.002 C 
ATOM     13  C   UNL     1      36.486 -20.535 -20.032  0.00  0.00    +0.002 C 
ATOM     14  C   UNL     1      35.291 -20.201 -20.673  0.00  0.00    +0.000 C 
ENDBRANCH   3   9
BRANCH   4  15
ATOM     15  N   UNL     1      36.595 -23.893 -14.164  0.00  0.00    -0.281 N 
ATOM     16  C   UNL     1      37.166 -25.243 -14.102  0.00  0.00    +0.114 C 
BRANCH  15  17
ATOM     17  C   UNL     1      36.832 -23.045 -12.988  0.00  0.00    +0.253 C 
BRANCH  17  18
ATOM     18  S   UNL     1      36.634 -23.904 -11.431  0.00  0.00    +0.042 S 
ATOM     19  O   UNL     1      36.930 -22.629 -10.460  0.00  0.00    -0.068 OA
ATOM     20  O   UNL     1      35.246 -24.290 -11.281  0.00  0.00    -0.068 OA
ATOM     21  O   UNL     1      37.715 -24.858 -11.285  0.00  0.00    -0.068 OA
ENDBRANCH  17  18
ENDBRANCH  15  17
ENDBRANCH   4  15
TORSDOF 4
ENDMDL
