MODEL 1
REMARK VINA RESULT:      -7.0      0.000      0.000
REMARK  Name = 11979
REMARK  0 active torsions:
REMARK  status: ('A' for Active; 'I' for Inactive)
REMARK                            x       y       z     vdW  Elec       q    Type
REMARK                         _______ _______ _______ _____ _____    ______ ____
ROOT
ATOM      1  N   UNL     1      34.923 -22.339 -18.765  0.00  0.00    -0.315 N 
ATOM      2  N   UNL     1      32.729 -22.028 -18.943  0.00  0.00    -0.315 N 
ATOM      3  C   UNL     1      34.772 -21.273 -19.612  0.00  0.00    +0.059 C 
ATOM      4  C   UNL     1      33.394 -21.098 -19.707  0.00  0.00    +0.059 C 
ATOM      5  C   UNL     1      35.174 -19.446 -21.083  0.00  0.00    -0.021 C 
ATOM      6  C   UNL     1      35.695 -20.469 -20.283  0.00  0.00    +0.011 C 
ATOM      7  C   UNL     1      32.889 -20.066 -20.515  0.00  0.00    +0.015 C 
ATOM      8  C   UNL     1      33.797 -19.247 -21.198  0.00  0.00    -0.003 C 
ATOM      9  C   UNL     1      36.112 -18.552 -21.826  0.00  0.00    +0.031 C 
ATOM     10  C   UNL     1      33.676 -22.756 -18.392  0.00  0.00    +0.182 C 
ATOM     11  H   UNL     1      35.777 -22.735 -18.476  0.00  0.00    +0.148 HD
ATOM     12  H   UNL     1      31.756 -22.128 -18.832  0.00  0.00    +0.148 HD
ENDROOT
TORSDOF 0
ENDMDL
MODEL 2
REMARK VINA RESULT:      -6.7      0.814      2.019
REMARK  Name = 11979
REMARK  0 active torsions:
REMARK  status: ('A' for Active; 'I' for Inactive)
REMARK                            x       y       z     vdW  Elec       q    Type
REMARK                         _______ _______ _______ _____ _____    ______ ____
ROOT
ATOM      1  N   UNL     1      32.647 -22.073 -18.778  0.00  0.00    -0.315 N 
ATOM      2  N   UNL     1      34.632 -22.737 -18.031  0.00  0.00    -0.315 N 
ATOM      3  C   UNL     1      33.568 -21.349 -19.491  0.00  0.00    +0.059 C 
ATOM      4  C   UNL     1      34.799 -21.782 -19.007  0.00  0.00    +0.059 C 
ATOM      5  C   UNL     1      34.616 -19.842 -21.005  0.00  0.00    -0.021 C 
ATOM      6  C   UNL     1      33.433 -20.382 -20.489  0.00  0.00    +0.011 C 
ATOM      7  C   UNL     1      35.976 -21.228 -19.537  0.00  0.00    +0.015 C 
ATOM      8  C   UNL     1      35.865 -20.256 -20.539  0.00  0.00    -0.003 C 
ATOM      9  C   UNL     1      34.537 -18.804 -22.075  0.00  0.00    +0.031 C 
ATOM     10  C   UNL     1      33.331 -22.887 -17.920  0.00  0.00    +0.182 C 
ATOM     11  H   UNL     1      31.668 -22.016 -18.869  0.00  0.00    +0.148 HD
ATOM     12  H   UNL     1      35.334 -23.207 -17.525  0.00  0.00    +0.148 HD
ENDROOT
TORSDOF 0
ENDMDL
MODEL 3
REMARK VINA RESULT:      -6.6      2.235      3.760
REMARK  Name = 11979
REMARK  0 active torsions:
REMARK  status: ('A' for Active; 'I' for Inactive)
REMARK                            x       y       z     vdW  Elec       q    Type
REMARK                         _______ _______ _______ _____ _____    ______ ____
ROOT
ATOM      1  N   UNL     1      36.402 -19.029 -21.261  0.00  0.00    -0.315 N 
ATOM      2  N   UNL     1      34.525 -18.055 -21.944  0.00  0.00    -0.315 N 
ATOM      3  C   UNL     1      35.385 -19.777 -20.725  0.00  0.00    +0.059 C 
ATOM      4  C   UNL     1      34.224 -19.149 -21.166  0.00  0.00    +0.059 C 
ATOM      5  C   UNL     1      34.131 -21.423 -19.551  0.00  0.00    -0.021 C 
ATOM      6  C   UNL     1      35.382 -20.915 -19.917  0.00  0.00    +0.011 C 
ATOM      7  C   UNL     1      32.977 -19.673 -20.789  0.00  0.00    +0.015 C 
ATOM      8  C   UNL     1      32.949 -20.814 -19.978  0.00  0.00    -0.003 C 
ATOM      9  C   UNL     1      34.062 -22.639 -18.688  0.00  0.00    +0.031 C 
ATOM     10  C   UNL     1      35.839 -18.013 -21.980  0.00  0.00    +0.182 C 
ATOM     11  H   UNL     1      37.366 -19.195 -21.147  0.00  0.00    +0.148 HD
ATOM     12  H   UNL     1      33.894 -17.437 -22.380  0.00  0.00    +0.148 HD
ENDROOT
TORSDOF 0
ENDMDL
MODEL 4
REMARK VINA RESULT:      -6.4      4.138      5.419
REMARK  Name = 11979
REMARK  0 active torsions:
REMARK  status: ('A' for Active; 'I' for Inactive)
REMARK                            x       y       z     vdW  Elec       q    Type
REMARK                         _______ _______ _______ _____ _____    ______ ____
ROOT
ATOM      1  N   UNL     1      35.880 -17.934 -22.950  0.00  0.00    -0.315 N 
ATOM      2  N   UNL     1      35.531 -17.936 -20.755  0.00  0.00    -0.315 N 
ATOM      3  C   UNL     1      35.253 -16.746 -22.678  0.00  0.00    +0.059 C 
ATOM      4  C   UNL     1      35.046 -16.770 -21.301  0.00  0.00    +0.059 C 
ATOM      5  C   UNL     1      34.232 -14.605 -22.862  0.00  0.00    -0.021 C 
ATOM      6  C   UNL     1      34.861 -15.683 -23.493  0.00  0.00    +0.011 C 
ATOM      7  C   UNL     1      34.412 -15.679 -20.685  0.00  0.00    +0.015 C 
ATOM      8  C   UNL     1      34.010 -14.601 -21.484  0.00  0.00    -0.003 C 
ATOM      9  C   UNL     1      33.790 -13.437 -23.681  0.00  0.00    +0.031 C 
ATOM     10  C   UNL     1      36.024 -18.610 -21.771  0.00  0.00    +0.182 C 
ATOM     11  H   UNL     1      36.174 -18.246 -23.837  0.00  0.00    +0.148 HD
ATOM     12  H   UNL     1      35.513 -18.208 -19.808  0.00  0.00    +0.148 HD
ENDROOT
TORSDOF 0
ENDMDL
MODEL 5
REMARK VINA RESULT:      -6.4      2.074      4.134
REMARK  Name = 11979
REMARK  0 active torsions:
REMARK  status: ('A' for Active; 'I' for Inactive)
REMARK                            x       y       z     vdW  Elec       q    Type
REMARK                         _______ _______ _______ _____ _____    ______ ____
ROOT
ATOM      1  N   UNL     1      33.835 -18.966 -21.454  0.00  0.00    -0.315 N 
ATOM      2  N   UNL     1      36.057 -18.904 -21.448  0.00  0.00    -0.315 N 
ATOM      3  C   UNL     1      34.228 -19.991 -20.633  0.00  0.00    +0.059 C 
ATOM      4  C   UNL     1      35.619 -19.932 -20.645  0.00  0.00    +0.059 C 
ATOM      5  C   UNL     1      34.253 -21.857 -19.156  0.00  0.00    -0.021 C 
ATOM      6  C   UNL     1      33.508 -20.938 -19.902  0.00  0.00    +0.011 C 
ATOM      7  C   UNL     1      36.351 -20.863 -19.890  0.00  0.00    +0.015 C 
ATOM      8  C   UNL     1      35.649 -21.822 -19.150  0.00  0.00    -0.003 C 
ATOM      9  C   UNL     1      33.539 -22.894 -18.353  0.00  0.00    +0.031 C 
ATOM     10  C   UNL     1      34.962 -18.346 -21.916  0.00  0.00    +0.182 C 
ATOM     11  H   UNL     1      32.907 -18.720 -21.671  0.00  0.00    +0.148 HD
ATOM     12  H   UNL     1      36.988 -18.642 -21.632  0.00  0.00    +0.148 HD
ENDROOT
TORSDOF 0
ENDMDL
MODEL 6
REMARK VINA RESULT:      -6.3      4.058      5.409
REMARK  Name = 11979
REMARK  0 active torsions:
REMARK  status: ('A' for Active; 'I' for Inactive)
REMARK                            x       y       z     vdW  Elec       q    Type
REMARK                         _______ _______ _______ _____ _____    ______ ____
ROOT
ATOM      1  N   UNL     1      35.515 -17.927 -20.758  0.00  0.00    -0.315 N 
ATOM      2  N   UNL     1      36.123 -17.898 -22.896  0.00  0.00    -0.315 N 
ATOM      3  C   UNL     1      34.898 -16.829 -21.299  0.00  0.00    +0.059 C 
ATOM      4  C   UNL     1      35.292 -16.832 -22.634  0.00  0.00    +0.059 C 
ATOM      5  C   UNL     1      33.599 -14.861 -21.617  0.00  0.00    -0.021 C 
ATOM      6  C   UNL     1      34.053 -15.862 -20.752  0.00  0.00    +0.011 C 
ATOM      7  C   UNL     1      34.826 -15.819 -23.489  0.00  0.00    +0.015 C 
ATOM      8  C   UNL     1      33.978 -14.839 -22.961  0.00  0.00    -0.003 C 
ATOM      9  C   UNL     1      32.692 -13.799 -21.090  0.00  0.00    +0.031 C 
ATOM     10  C   UNL     1      36.235 -18.532 -21.750  0.00  0.00    +0.182 C 
ATOM     11  H   UNL     1      35.452 -18.226 -19.822  0.00  0.00    +0.148 HD
ATOM     12  H   UNL     1      36.542 -18.134 -23.755  0.00  0.00    +0.148 HD
ENDROOT
TORSDOF 0
ENDMDL
MODEL 7
REMARK VINA RESULT:      -6.2      4.073      5.522
REMARK  Name = 11979
REMARK  0 active torsions:
REMARK  status: ('A' for Active; 'I' for Inactive)
REMARK                            x       y       z     vdW  Elec       q    Type
REMARK                         _______ _______ _______ _____ _____    ______ ____
ROOT
ATOM      1  N   UNL     1      34.564 -18.078 -25.052  0.00  0.00    -0.315 N 
ATOM      2  N   UNL     1      34.626 -16.002 -24.261  0.00  0.00    -0.315 N 
ATOM      3  C   UNL     1      34.742 -18.207 -23.699  0.00  0.00    +0.059 C 
ATOM      4  C   UNL     1      34.778 -16.898 -23.228  0.00  0.00    +0.059 C 
ATOM      5  C   UNL     1      35.043 -19.078 -21.505  0.00  0.00    -0.021 C 
ATOM      6  C   UNL     1      34.871 -19.324 -22.872  0.00  0.00    +0.011 C 
ATOM      7  C   UNL     1      34.951 -16.670 -21.853  0.00  0.00    +0.015 C 
ATOM      8  C   UNL     1      35.082 -17.775 -21.004  0.00  0.00    -0.003 C 
ATOM      9  C   UNL     1      35.185 -20.232 -20.569  0.00  0.00    +0.031 C 
ATOM     10  C   UNL     1      34.501 -16.743 -25.340  0.00  0.00    +0.182 C 
ATOM     11  H   UNL     1      34.495 -18.815 -25.702  0.00  0.00    +0.148 HD
ATOM     12  H   UNL     1      34.615 -15.019 -24.206  0.00  0.00    +0.148 HD
ENDROOT
TORSDOF 0
ENDMDL
MODEL 8
REMARK VINA RESULT:      -6.1      5.024      6.587
REMARK  Name = 11979
REMARK  0 active torsions:
REMARK  status: ('A' for Active; 'I' for Inactive)
REMARK                            x       y       z     vdW  Elec       q    Type
REMARK                         _______ _______ _______ _____ _____    ______ ____
ROOT
ATOM      1  N   UNL     1      33.895 -14.653 -23.669  0.00  0.00    -0.315 N 
ATOM      2  N   UNL     1      33.557 -15.671 -25.616  0.00  0.00    -0.315 N 
ATOM      3  C   UNL     1      34.416 -15.912 -23.519  0.00  0.00    +0.059 C 
ATOM      4  C   UNL     1      34.193 -16.528 -24.748  0.00  0.00    +0.059 C 
ATOM      5  C   UNL     1      35.459 -17.867 -22.652  0.00  0.00    -0.021 C 
ATOM      6  C   UNL     1      35.045 -16.547 -22.447  0.00  0.00    +0.011 C 
ATOM      7  C   UNL     1      34.615 -17.855 -24.936  0.00  0.00    +0.015 C 
ATOM      8  C   UNL     1      35.249 -18.511 -23.873  0.00  0.00    -0.003 C 
ATOM      9  C   UNL     1      36.138 -18.599 -21.542  0.00  0.00    +0.031 C 
ATOM     10  C   UNL     1      33.393 -14.557 -24.937  0.00  0.00    +0.182 C 
ATOM     11  H   UNL     1      33.883 -13.945 -22.985  0.00  0.00    +0.148 HD
ATOM     12  H   UNL     1      33.283 -15.852 -26.544  0.00  0.00    +0.148 HD
ENDROOT
TORSDOF 0
ENDMDL
MODEL 9
REMARK VINA RESULT:      -6.1      4.104      5.561
REMARK  Name = 11979
REMARK  0 active torsions:
REMARK  status: ('A' for Active; 'I' for Inactive)
REMARK                            x       y       z     vdW  Elec       q    Type
REMARK                         _______ _______ _______ _____ _____    ______ ____
ROOT
ATOM      1  N   UNL     1      34.585 -15.420 -21.985  0.00  0.00    -0.315 N 
ATOM      2  N   UNL     1      34.606 -15.851 -24.165  0.00  0.00    -0.315 N 
ATOM      3  C   UNL     1      34.710 -16.781 -22.088  0.00  0.00    +0.059 C 
ATOM      4  C   UNL     1      34.721 -17.026 -23.458  0.00  0.00    +0.059 C 
ATOM      5  C   UNL     1      34.931 -19.101 -21.603  0.00  0.00    -0.021 C 
ATOM      6  C   UNL     1      34.813 -17.790 -21.128  0.00  0.00    +0.011 C 
ATOM      7  C   UNL     1      34.840 -18.348 -23.917  0.00  0.00    +0.015 C 
ATOM      8  C   UNL     1      34.944 -19.376 -22.972  0.00  0.00    -0.003 C 
ATOM      9  C   UNL     1      35.045 -20.223 -20.625  0.00  0.00    +0.031 C 
ATOM     10  C   UNL     1      34.526 -14.909 -23.251  0.00  0.00    +0.182 C 
ATOM     11  H   UNL     1      34.544 -14.903 -21.148  0.00  0.00    +0.148 HD
ATOM     12  H   UNL     1      34.587 -15.739 -25.143  0.00  0.00    +0.148 HD
ENDROOT
TORSDOF 0
ENDMDL
