MODEL 1
REMARK VINA RESULT:     -13.3      0.000      0.000
REMARK  Name = 4369496
REMARK  6 active torsions:
REMARK  status: ('A' for Active; 'I' for Inactive)
REMARK    1  A    between atoms: N_2  and  C_21
REMARK    2  A    between atoms: C_3  and  C_10
REMARK    3  A    between atoms: C_5  and  C_11
REMARK    4  A    between atoms: C_11  and  N_12
REMARK    5  A    between atoms: C_23  and  N_27
REMARK    6  A    between atoms: C_31  and  C_36
REMARK                            x       y       z     vdW  Elec       q    Type
REMARK                         _______ _______ _______ _____ _____    ______ ____
ROOT
ATOM      1  O   UNL     1      35.652 -17.187 -20.259  0.00  0.00    -0.270 OA
ATOM      2  N   UNL     1      34.032 -18.571 -21.242  0.00  0.00    -0.280 N 
ATOM      3  C   UNL     1      34.700 -17.355 -21.038  0.00  0.00    +0.249 C 
ATOM      4  H   UNL     1      33.295 -18.549 -21.893  0.00  0.00    +0.155 HD
ENDROOT
BRANCH   3  10
ATOM      5  C   UNL     1      33.241 -14.051 -23.239  0.00  0.00    -0.043 C 
ATOM      6  C   UNL     1      34.185 -14.891 -23.812  0.00  0.00    -0.006 C 
ATOM      7  C   UNL     1      32.768 -14.278 -21.954  0.00  0.00    -0.006 C 
ATOM      8  C   UNL     1      34.665 -15.981 -23.087  0.00  0.00    +0.004 C 
ATOM      9  C   UNL     1      33.249 -15.368 -21.229  0.00  0.00    +0.004 C 
ATOM     10  C   UNL     1      34.198 -16.220 -21.795  0.00  0.00    +0.054 C 
BRANCH   5  11
ATOM     11  C   UNL     1      32.721 -12.874 -24.022  0.00  0.00    -0.050 C 
BRANCH  11  12
ATOM     12  N   UNL     1      33.411 -11.636 -23.667  0.00  0.00    +0.387 N 
ATOM     13  N   UNL     1      33.953  -8.812 -23.965  0.00  0.00    +0.383 N 
ATOM     14  C   UNL     1      32.458 -10.624 -23.197  0.00  0.00    -0.100 C 
ATOM     15  C   UNL     1      34.182 -11.124 -24.806  0.00  0.00    -0.100 C 
ATOM     16  C   UNL     1      33.181  -9.324 -22.826  0.00  0.00    -0.101 C 
ATOM     17  C   UNL     1      34.906  -9.824 -24.436  0.00  0.00    -0.101 C 
ATOM     18  C   UNL     1      34.644  -7.575 -23.608  0.00  0.00    -0.101 C 
ATOM     19  H   UNL     1      34.059 -11.843 -22.908  0.00  0.00    -0.079 HD
ATOM     20  H   UNL     1      33.304  -8.602 -24.724  0.00  0.00    -0.080 HD
ENDBRANCH  11  12
ENDBRANCH   5  11
ENDBRANCH   3  10
BRANCH   2  21
ATOM     21  C   UNL     1      34.279 -19.826 -20.633  0.00  0.00    +0.052 C 
ATOM     22  C   UNL     1      33.281 -20.420 -19.880  0.00  0.00    +0.030 C 
ATOM     23  C   UNL     1      33.526 -21.656 -19.279  0.00  0.00    +0.059 C 
ATOM     24  C   UNL     1      35.513 -20.429 -20.806  0.00  0.00    +0.015 C 
ATOM     25  C   UNL     1      34.764 -22.278 -19.443  0.00  0.00    +0.015 C 
ATOM     26  C   UNL     1      35.757 -21.664 -20.206  0.00  0.00    +0.003 C 
BRANCH  23  27
ATOM     27  N   UNL     1      32.520 -22.276 -18.509  0.00  0.00    -0.247 N 
ATOM     28  N   UNL     1      33.706 -22.885 -16.577  0.00  0.00    -0.337 NA
ATOM     29  N   UNL     1      31.359 -23.385 -16.798  0.00  0.00    -0.170 NA
ATOM     30  C   UNL     1      32.529 -22.877 -17.235  0.00  0.00    +0.149 C 
ATOM     31  C   UNL     1      33.677 -23.467 -15.361  0.00  0.00    +0.147 C 
ATOM     32  C   UNL     1      32.544 -24.022 -14.803  0.00  0.00    +0.055 C 
ATOM     33  C   UNL     1      31.403 -23.952 -15.575  0.00  0.00    +0.114 C 
ATOM     34  H   UNL     1      31.640 -22.294 -18.949  0.00  0.00    +0.165 HD
BRANCH  31  36
ATOM     35  N   UNL     1      37.317 -23.053 -14.675  0.00  0.00    -0.242 NA
ATOM     36  C   UNL     1      34.936 -23.475 -14.656  0.00  0.00    +0.050 C 
ATOM     37  C   UNL     1      35.014 -23.889 -13.330  0.00  0.00    +0.006 C 
ATOM     38  C   UNL     1      36.107 -23.071 -15.277  0.00  0.00    +0.101 C 
ATOM     39  C   UNL     1      36.242 -23.885 -12.677  0.00  0.00    +0.021 C 
ATOM     40  C   UNL     1      37.353 -23.462 -13.387  0.00  0.00    +0.099 C 
ENDBRANCH  31  36
ENDBRANCH  23  27
ENDBRANCH   2  21
TORSDOF 6
ENDMDL
MODEL 2
REMARK VINA RESULT:     -12.9      1.151      1.450
REMARK  Name = 4369496
REMARK  6 active torsions:
REMARK  status: ('A' for Active; 'I' for Inactive)
REMARK    1  A    between atoms: N_2  and  C_21
REMARK    2  A    between atoms: C_3  and  C_10
REMARK    3  A    between atoms: C_5  and  C_11
REMARK    4  A    between atoms: C_11  and  N_12
REMARK    5  A    between atoms: C_23  and  N_27
REMARK    6  A    between atoms: C_31  and  C_36
REMARK                            x       y       z     vdW  Elec       q    Type
REMARK                         _______ _______ _______ _____ _____    ______ ____
ROOT
ATOM      1  O   UNL     1      36.503 -18.362 -22.132  0.00  0.00    -0.270 OA
ATOM      2  N   UNL     1      34.347 -18.775 -21.306  0.00  0.00    -0.280 N 
ATOM      3  C   UNL     1      35.306 -18.051 -22.030  0.00  0.00    +0.249 C 
ATOM      4  H   UNL     1      33.435 -18.404 -21.317  0.00  0.00    +0.155 HD
ENDROOT
BRANCH   3  10
ATOM      5  C   UNL     1      33.932 -14.520 -23.909  0.00  0.00    -0.043 C 
ATOM      6  C   UNL     1      34.055 -15.686 -24.652  0.00  0.00    -0.006 C 
ATOM      7  C   UNL     1      34.252 -14.495 -22.559  0.00  0.00    -0.006 C 
ATOM      8  C   UNL     1      34.507 -16.851 -24.032  0.00  0.00    +0.004 C 
ATOM      9  C   UNL     1      34.704 -15.660 -21.939  0.00  0.00    +0.004 C 
ATOM     10  C   UNL     1      34.832 -16.838 -22.675  0.00  0.00    +0.054 C 
BRANCH   5  11
ATOM     11  C   UNL     1      33.442 -13.263 -24.578  0.00  0.00    -0.050 C 
BRANCH  11  12
ATOM     12  N   UNL     1      33.340 -12.150 -23.635  0.00  0.00    +0.387 N 
ATOM     13  N   UNL     1      32.138  -9.714 -22.646  0.00  0.00    +0.383 N 
ATOM     14  C   UNL     1      32.042 -12.165 -22.950  0.00  0.00    -0.100 C 
ATOM     15  C   UNL     1      33.544 -10.868 -24.319  0.00  0.00    -0.100 C 
ATOM     16  C   UNL     1      31.933 -10.997 -21.963  0.00  0.00    -0.101 C 
ATOM     17  C   UNL     1      33.435  -9.699 -23.333  0.00  0.00    -0.101 C 
ATOM     18  C   UNL     1      32.037  -8.602 -21.703  0.00  0.00    -0.101 C 
ATOM     19  H   UNL     1      34.073 -12.261 -22.936  0.00  0.00    -0.079 HD
ATOM     20  H   UNL     1      31.403  -9.601 -23.345  0.00  0.00    -0.080 HD
ENDBRANCH  11  12
ENDBRANCH   5  11
ENDBRANCH   3  10
BRANCH   2  21
ATOM     21  C   UNL     1      34.517 -19.968 -20.563  0.00  0.00    +0.052 C 
ATOM     22  C   UNL     1      33.430 -20.514 -19.902  0.00  0.00    +0.030 C 
ATOM     23  C   UNL     1      33.599 -21.689 -19.168  0.00  0.00    +0.059 C 
ATOM     24  C   UNL     1      35.768 -20.560 -20.513  0.00  0.00    +0.015 C 
ATOM     25  C   UNL     1      34.852 -22.299 -19.108  0.00  0.00    +0.015 C 
ATOM     26  C   UNL     1      35.936 -21.735 -19.780  0.00  0.00    +0.003 C 
BRANCH  23  27
ATOM     27  N   UNL     1      32.503 -22.261 -18.490  0.00  0.00    -0.247 N 
ATOM     28  N   UNL     1      33.493 -22.950 -16.477  0.00  0.00    -0.337 NA
ATOM     29  N   UNL     1      31.148 -23.318 -16.893  0.00  0.00    -0.170 NA
ATOM     30  C   UNL     1      32.376 -22.872 -17.228  0.00  0.00    +0.149 C 
ATOM     31  C   UNL     1      33.334 -23.541 -15.275  0.00  0.00    +0.147 C 
ATOM     32  C   UNL     1      32.131 -24.038 -14.818  0.00  0.00    +0.055 C 
ATOM     33  C   UNL     1      31.062 -23.898 -15.678  0.00  0.00    +0.114 C 
ATOM     34  H   UNL     1      31.661 -22.226 -19.000  0.00  0.00    +0.165 HD
BRANCH  31  36
ATOM     35  N   UNL     1      35.590 -24.317 -12.411  0.00  0.00    -0.242 NA
ATOM     36  C   UNL     1      34.530 -23.624 -14.471  0.00  0.00    +0.050 C 
ATOM     37  C   UNL     1      35.742 -23.121 -14.933  0.00  0.00    +0.006 C 
ATOM     38  C   UNL     1      34.508 -24.206 -13.213  0.00  0.00    +0.101 C 
ATOM     39  C   UNL     1      36.877 -23.216 -14.135  0.00  0.00    +0.021 C 
ATOM     40  C   UNL     1      36.749 -23.817 -12.894  0.00  0.00    +0.099 C 
ENDBRANCH  31  36
ENDBRANCH  23  27
ENDBRANCH   2  21
TORSDOF 6
ENDMDL
MODEL 3
REMARK VINA RESULT:     -12.3      2.143     12.990
REMARK  Name = 4369496
REMARK  6 active torsions:
REMARK  status: ('A' for Active; 'I' for Inactive)
REMARK    1  A    between atoms: N_2  and  C_21
REMARK    2  A    between atoms: C_3  and  C_10
REMARK    3  A    between atoms: C_5  and  C_11
REMARK    4  A    between atoms: C_11  and  N_12
REMARK    5  A    between atoms: C_23  and  N_27
REMARK    6  A    between atoms: C_31  and  C_36
REMARK                            x       y       z     vdW  Elec       q    Type
REMARK                         _______ _______ _______ _____ _____    ______ ____
ROOT
ATOM      1  O   UNL     1      35.460 -16.344 -22.675  0.00  0.00    -0.270 OA
ATOM      2  N   UNL     1      33.447 -16.085 -21.498  0.00  0.00    -0.280 N 
ATOM      3  C   UNL     1      34.604 -16.776 -21.886  0.00  0.00    +0.249 C 
ATOM      4  H   UNL     1      32.861 -16.557 -20.864  0.00  0.00    +0.155 HD
ENDROOT
BRANCH   3  10
ATOM      5  C   UNL     1      35.087 -20.645 -20.247  0.00  0.00    -0.043 C 
ATOM      6  C   UNL     1      36.208 -19.893 -20.567  0.00  0.00    -0.006 C 
ATOM      7  C   UNL     1      33.809 -20.147 -20.457  0.00  0.00    -0.006 C 
ATOM      8  C   UNL     1      36.049 -18.617 -21.106  0.00  0.00    +0.004 C 
ATOM      9  C   UNL     1      33.650 -18.870 -20.997  0.00  0.00    +0.004 C 
ATOM     10  C   UNL     1      34.770 -18.105 -21.322  0.00  0.00    +0.054 C 
BRANCH   5  11
ATOM     11  C   UNL     1      35.258 -22.022 -19.663  0.00  0.00    -0.050 C 
BRANCH  11  12
ATOM     12  N   UNL     1      35.340 -21.988 -18.204  0.00  0.00    +0.387 N 
ATOM     13  N   UNL     1      36.015 -23.129 -15.635  0.00  0.00    +0.383 N 
ATOM     14  C   UNL     1      36.734 -22.090 -17.759  0.00  0.00    -0.100 C 
ATOM     15  C   UNL     1      34.534 -23.062 -17.612  0.00  0.00    -0.100 C 
ATOM     16  C   UNL     1      36.822 -22.056 -16.229  0.00  0.00    -0.101 C 
ATOM     17  C   UNL     1      34.620 -23.030 -16.082  0.00  0.00    -0.101 C 
ATOM     18  C   UNL     1      36.096 -23.094 -14.176  0.00  0.00    -0.101 C 
ATOM     19  H   UNL     1      34.966 -21.094 -17.889  0.00  0.00    -0.079 HD
ATOM     20  H   UNL     1      36.390 -24.025 -15.949  0.00  0.00    -0.080 HD
ENDBRANCH  11  12
ENDBRANCH   5  11
ENDBRANCH   3  10
BRANCH   2  21
ATOM     21  C   UNL     1      33.011 -14.799 -21.899  0.00  0.00    +0.052 C 
ATOM     22  C   UNL     1      32.688 -13.862 -20.932  0.00  0.00    +0.030 C 
ATOM     23  C   UNL     1      32.257 -12.596 -21.328  0.00  0.00    +0.059 C 
ATOM     24  C   UNL     1      32.918 -14.508 -23.250  0.00  0.00    +0.015 C 
ATOM     25  C   UNL     1      32.157 -12.285 -22.684  0.00  0.00    +0.015 C 
ATOM     26  C   UNL     1      32.488 -13.241 -23.645  0.00  0.00    +0.003 C 
BRANCH  23  27
ATOM     27  N   UNL     1      31.924 -11.629 -20.356  0.00  0.00    -0.247 N 
ATOM     28  N   UNL     1      32.456  -9.632 -21.468  0.00  0.00    -0.337 NA
ATOM     29  N   UNL     1      31.583  -9.603 -19.222  0.00  0.00    -0.170 NA
ATOM     30  C   UNL     1      31.991 -10.222 -20.349  0.00  0.00    +0.149 C 
ATOM     31  C   UNL     1      32.506  -8.284 -21.426  0.00  0.00    +0.147 C 
ATOM     32  C   UNL     1      32.117  -7.537 -20.334  0.00  0.00    +0.055 C 
ATOM     33  C   UNL     1      31.660  -8.256 -19.249  0.00  0.00    +0.114 C 
ATOM     34  H   UNL     1      31.578 -12.013 -19.518  0.00  0.00    +0.165 HD
BRANCH  31  36
ATOM     35  N   UNL     1      32.587  -6.222 -24.529  0.00  0.00    -0.242 NA
ATOM     36  C   UNL     1      33.002  -7.652 -22.625  0.00  0.00    +0.050 C 
ATOM     37  C   UNL     1      34.317  -7.835 -23.041  0.00  0.00    +0.006 C 
ATOM     38  C   UNL     1      32.185  -6.843 -23.398  0.00  0.00    +0.101 C 
ATOM     39  C   UNL     1      34.767  -7.212 -24.200  0.00  0.00    +0.021 C 
ATOM     40  C   UNL     1      33.870  -6.423 -24.902  0.00  0.00    +0.099 C 
ENDBRANCH  31  36
ENDBRANCH  23  27
ENDBRANCH   2  21
TORSDOF 6
ENDMDL
MODEL 4
REMARK VINA RESULT:     -12.1      3.307      6.018
REMARK  Name = 4369496
REMARK  6 active torsions:
REMARK  status: ('A' for Active; 'I' for Inactive)
REMARK    1  A    between atoms: N_2  and  C_21
REMARK    2  A    between atoms: C_3  and  C_10
REMARK    3  A    between atoms: C_5  and  C_11
REMARK    4  A    between atoms: C_11  and  N_12
REMARK    5  A    between atoms: C_23  and  N_27
REMARK    6  A    between atoms: C_31  and  C_36
REMARK                            x       y       z     vdW  Elec       q    Type
REMARK                         _______ _______ _______ _____ _____    ______ ____
ROOT
ATOM      1  O   UNL     1      33.827 -23.854 -19.028  0.00  0.00    -0.270 OA
ATOM      2  N   UNL     1      33.323 -22.288 -17.356  0.00  0.00    -0.280 N 
ATOM      3  C   UNL     1      33.823 -22.688 -18.603  0.00  0.00    +0.249 C 
ATOM      4  H   UNL     1      33.390 -21.326 -17.158  0.00  0.00    +0.155 HD
ENDROOT
BRANCH   3  10
ATOM      5  C   UNL     1      35.496 -19.622 -20.989  0.00  0.00    -0.043 C 
ATOM      6  C   UNL     1      36.335 -20.495 -20.311  0.00  0.00    -0.006 C 
ATOM      7  C   UNL     1      34.116 -19.740 -20.896  0.00  0.00    -0.006 C 
ATOM      8  C   UNL     1      35.784 -21.507 -19.525  0.00  0.00    +0.004 C 
ATOM      9  C   UNL     1      33.565 -20.751 -20.110  0.00  0.00    +0.004 C 
ATOM     10  C   UNL     1      34.398 -21.635 -19.424  0.00  0.00    +0.054 C 
BRANCH   5  11
ATOM     11  C   UNL     1      36.091 -18.531 -21.839  0.00  0.00    -0.050 C 
BRANCH  11  12
ATOM     12  N   UNL     1      35.093 -17.917 -22.713  0.00  0.00    +0.387 N 
ATOM     13  N   UNL     1      34.288 -16.219 -24.910  0.00  0.00    +0.383 N 
ATOM     14  C   UNL     1      35.298 -18.327 -24.107  0.00  0.00    -0.100 C 
ATOM     15  C   UNL     1      35.130 -16.454 -22.598  0.00  0.00    -0.100 C 
ATOM     16  C   UNL     1      34.254 -17.682 -25.024  0.00  0.00    -0.101 C 
ATOM     17  C   UNL     1      34.085 -15.808 -23.515  0.00  0.00    -0.101 C 
ATOM     18  C   UNL     1      33.289 -15.606 -25.783  0.00  0.00    -0.101 C 
ATOM     19  H   UNL     1      34.173 -18.239 -22.415  0.00  0.00    -0.079 HD
ATOM     20  H   UNL     1      35.209 -15.895 -25.209  0.00  0.00    -0.080 HD
ENDBRANCH  11  12
ENDBRANCH   5  11
ENDBRANCH   3  10
BRANCH   2  21
ATOM     21  C   UNL     1      32.734 -23.086 -16.344  0.00  0.00    +0.052 C 
ATOM     22  C   UNL     1      33.309 -23.114 -15.085  0.00  0.00    +0.030 C 
ATOM     23  C   UNL     1      32.730 -23.902 -14.090  0.00  0.00    +0.059 C 
ATOM     24  C   UNL     1      31.597 -23.818 -16.638  0.00  0.00    +0.015 C 
ATOM     25  C   UNL     1      31.584 -24.647 -14.368  0.00  0.00    +0.015 C 
ATOM     26  C   UNL     1      31.017 -24.605 -15.642  0.00  0.00    +0.003 C 
BRANCH  23  27
ATOM     27  N   UNL     1      33.302 -23.942 -12.801  0.00  0.00    -0.247 N 
ATOM     28  N   UNL     1      35.579 -24.215 -13.297  0.00  0.00    -0.337 NA
ATOM     29  N   UNL     1      34.816 -24.085 -11.015  0.00  0.00    -0.170 NA
ATOM     30  C   UNL     1      34.628 -24.088 -12.350  0.00  0.00    +0.149 C 
ATOM     31  C   UNL     1      36.837 -24.353 -12.830  0.00  0.00    +0.147 C 
ATOM     32  C   UNL     1      37.159 -24.364 -11.489  0.00  0.00    +0.055 C 
ATOM     33  C   UNL     1      36.098 -24.226 -10.618  0.00  0.00    +0.114 C 
ATOM     34  H   UNL     1      32.644 -23.852 -12.074  0.00  0.00    +0.165 HD
BRANCH  31  36
ATOM     35  N   UNL     1      38.823 -23.707 -15.917  0.00  0.00    -0.242 NA
ATOM     36  C   UNL     1      37.855 -24.488 -13.843  0.00  0.00    +0.050 C 
ATOM     37  C   UNL     1      38.827 -25.480 -13.756  0.00  0.00    +0.006 C 
ATOM     38  C   UNL     1      37.898 -23.635 -14.934  0.00  0.00    +0.101 C 
ATOM     39  C   UNL     1      39.795 -25.586 -14.749  0.00  0.00    +0.021 C 
ATOM     40  C   UNL     1      39.750 -24.683 -15.798  0.00  0.00    +0.099 C 
ENDBRANCH  31  36
ENDBRANCH  23  27
ENDBRANCH   2  21
TORSDOF 6
ENDMDL
MODEL 5
REMARK VINA RESULT:     -11.7      1.836     13.214
REMARK  Name = 4369496
REMARK  6 active torsions:
REMARK  status: ('A' for Active; 'I' for Inactive)
REMARK    1  A    between atoms: N_2  and  C_21
REMARK    2  A    between atoms: C_3  and  C_10
REMARK    3  A    between atoms: C_5  and  C_11
REMARK    4  A    between atoms: C_11  and  N_12
REMARK    5  A    between atoms: C_23  and  N_27
REMARK    6  A    between atoms: C_31  and  C_36
REMARK                            x       y       z     vdW  Elec       q    Type
REMARK                         _______ _______ _______ _____ _____    ______ ____
ROOT
ATOM      1  O   UNL     1      34.429 -17.145 -23.317  0.00  0.00    -0.270 OA
ATOM      2  N   UNL     1      33.851 -16.148 -21.273  0.00  0.00    -0.280 N 
ATOM      3  C   UNL     1      34.340 -17.186 -22.079  0.00  0.00    +0.249 C 
ATOM      4  H   UNL     1      33.840 -16.328 -20.306  0.00  0.00    +0.155 HD
ENDROOT
BRANCH   3  10
ATOM      5  C   UNL     1      35.504 -20.708 -20.047  0.00  0.00    -0.043 C 
ATOM      6  C   UNL     1      34.161 -20.485 -20.314  0.00  0.00    -0.006 C 
ATOM      7  C   UNL     1      36.472 -19.793 -20.436  0.00  0.00    -0.006 C 
ATOM      8  C   UNL     1      33.777 -19.324 -20.985  0.00  0.00    +0.004 C 
ATOM      9  C   UNL     1      36.088 -18.632 -21.108  0.00  0.00    +0.004 C 
ATOM     10  C   UNL     1      34.741 -18.397 -21.382  0.00  0.00    +0.054 C 
BRANCH   5  11
ATOM     11  C   UNL     1      35.919 -21.961 -19.323  0.00  0.00    -0.050 C 
BRANCH  11  12
ATOM     12  N   UNL     1      35.213 -22.116 -18.053  0.00  0.00    +0.387 N 
ATOM     13  N   UNL     1      34.343 -23.645 -15.759  0.00  0.00    +0.383 N 
ATOM     14  C   UNL     1      36.146 -22.473 -16.978  0.00  0.00    -0.100 C 
ATOM     15  C   UNL     1      34.152 -23.124 -18.167  0.00  0.00    -0.100 C 
ATOM     16  C   UNL     1      35.406 -22.638 -15.646  0.00  0.00    -0.101 C 
ATOM     17  C   UNL     1      33.411 -23.289 -16.835  0.00  0.00    -0.101 C 
ATOM     18  C   UNL     1      33.637 -23.799 -14.489  0.00  0.00    -0.101 C 
ATOM     19  H   UNL     1      34.783 -21.222 -17.821  0.00  0.00    -0.079 HD
ATOM     20  H   UNL     1      34.774 -24.542 -15.989  0.00  0.00    -0.080 HD
ENDBRANCH  11  12
ENDBRANCH   5  11
ENDBRANCH   3  10
BRANCH   2  21
ATOM     21  C   UNL     1      33.369 -14.876 -21.669  0.00  0.00    +0.052 C 
ATOM     22  C   UNL     1      34.060 -14.162 -22.633  0.00  0.00    +0.030 C 
ATOM     23  C   UNL     1      33.586 -12.908 -23.020  0.00  0.00    +0.059 C 
ATOM     24  C   UNL     1      32.220 -14.377 -21.081  0.00  0.00    +0.015 C 
ATOM     25  C   UNL     1      32.430 -12.389 -22.439  0.00  0.00    +0.015 C 
ATOM     26  C   UNL     1      31.746 -13.123 -21.469  0.00  0.00    +0.003 C 
BRANCH  23  27
ATOM     27  N   UNL     1      34.276 -12.166 -24.002  0.00  0.00    -0.247 N 
ATOM     28  N   UNL     1      33.714  -9.964 -23.420  0.00  0.00    -0.337 NA
ATOM     29  N   UNL     1      35.144 -10.419 -25.305  0.00  0.00    -0.170 NA
ATOM     30  C   UNL     1      34.382 -10.785 -24.254  0.00  0.00    +0.149 C 
ATOM     31  C   UNL     1      33.838  -8.648 -23.691  0.00  0.00    +0.147 C 
ATOM     32  C   UNL     1      34.587  -8.148 -24.736  0.00  0.00    +0.055 C 
ATOM     33  C   UNL     1      35.224  -9.089 -25.518  0.00  0.00    +0.114 C 
ATOM     34  H   UNL     1      34.782 -12.725 -24.636  0.00  0.00    +0.165 HD
BRANCH  31  36
ATOM     35  N   UNL     1      32.326  -7.295 -20.564  0.00  0.00    -0.242 NA
ATOM     36  C   UNL     1      33.123  -7.768 -22.797  0.00  0.00    +0.050 C 
ATOM     37  C   UNL     1      32.553  -6.586 -23.258  0.00  0.00    +0.006 C 
ATOM     38  C   UNL     1      32.982  -8.074 -21.453  0.00  0.00    +0.101 C 
ATOM     39  C   UNL     1      31.870  -5.758 -22.373  0.00  0.00    +0.021 C 
ATOM     40  C   UNL     1      31.786  -6.155 -21.048  0.00  0.00    +0.099 C 
ENDBRANCH  31  36
ENDBRANCH  23  27
ENDBRANCH   2  21
TORSDOF 6
ENDMDL
MODEL 6
REMARK VINA RESULT:     -11.6      1.645      3.024
REMARK  Name = 4369496
REMARK  6 active torsions:
REMARK  status: ('A' for Active; 'I' for Inactive)
REMARK    1  A    between atoms: N_2  and  C_21
REMARK    2  A    between atoms: C_3  and  C_10
REMARK    3  A    between atoms: C_5  and  C_11
REMARK    4  A    between atoms: C_11  and  N_12
REMARK    5  A    between atoms: C_23  and  N_27
REMARK    6  A    between atoms: C_31  and  C_36
REMARK                            x       y       z     vdW  Elec       q    Type
REMARK                         _______ _______ _______ _____ _____    ______ ____
ROOT
ATOM      1  O   UNL     1      35.572 -18.554 -23.219  0.00  0.00    -0.270 OA
ATOM      2  N   UNL     1      33.912 -18.240 -21.591  0.00  0.00    -0.280 N 
ATOM      3  C   UNL     1      34.694 -17.854 -22.689  0.00  0.00    +0.249 C 
ATOM      4  H   UNL     1      33.256 -17.576 -21.280  0.00  0.00    +0.155 HD
ENDROOT
BRANCH   3  10
ATOM      5  C   UNL     1      33.980 -13.964 -24.186  0.00  0.00    -0.043 C 
ATOM      6  C   UNL     1      34.306 -14.131 -22.848  0.00  0.00    -0.006 C 
ATOM      7  C   UNL     1      33.884 -15.052 -25.041  0.00  0.00    -0.006 C 
ATOM      8  C   UNL     1      34.543 -15.414 -22.354  0.00  0.00    +0.004 C 
ATOM      9  C   UNL     1      34.120 -16.335 -24.547  0.00  0.00    +0.004 C 
ATOM     10  C   UNL     1      34.450 -16.517 -23.204  0.00  0.00    +0.054 C 
BRANCH   5  11
ATOM     11  C   UNL     1      33.725 -12.578 -24.720  0.00  0.00    -0.050 C 
BRANCH  11  12
ATOM     12  N   UNL     1      33.507 -11.613 -23.645  0.00  0.00    +0.387 N 
ATOM     13  N   UNL     1      32.118  -9.393 -22.419  0.00  0.00    +0.383 N 
ATOM     14  C   UNL     1      32.172 -11.780 -23.057  0.00  0.00    -0.100 C 
ATOM     15  C   UNL     1      33.683 -10.240 -24.134  0.00  0.00    -0.100 C 
ATOM     16  C   UNL     1      31.941 -10.766 -21.931  0.00  0.00    -0.101 C 
ATOM     17  C   UNL     1      33.453  -9.225 -23.008  0.00  0.00    -0.101 C 
ATOM     18  C   UNL     1      31.901  -8.428 -21.343  0.00  0.00    -0.101 C 
ATOM     19  H   UNL     1      34.201 -11.787 -22.919  0.00  0.00    -0.079 HD
ATOM     20  H   UNL     1      31.422  -9.217 -23.144  0.00  0.00    -0.080 HD
ENDBRANCH  11  12
ENDBRANCH   5  11
ENDBRANCH   3  10
BRANCH   2  21
ATOM     21  C   UNL     1      33.944 -19.459 -20.870  0.00  0.00    +0.052 C 
ATOM     22  C   UNL     1      35.086 -19.799 -20.166  0.00  0.00    +0.030 C 
ATOM     23  C   UNL     1      35.117 -21.001 -19.458  0.00  0.00    +0.059 C 
ATOM     24  C   UNL     1      32.831 -20.282 -20.886  0.00  0.00    +0.015 C 
ATOM     25  C   UNL     1      34.005 -21.842 -19.464  0.00  0.00    +0.015 C 
ATOM     26  C   UNL     1      32.861 -21.483 -20.178  0.00  0.00    +0.003 C 
BRANCH  23  27
ATOM     27  N   UNL     1      36.273 -21.364 -18.735  0.00  0.00    -0.247 N 
ATOM     28  N   UNL     1      35.348 -22.446 -16.869  0.00  0.00    -0.337 NA
ATOM     29  N   UNL     1      37.734 -22.217 -17.110  0.00  0.00    -0.170 NA
ATOM     30  C   UNL     1      36.460 -22.040 -17.514  0.00  0.00    +0.149 C 
ATOM     31  C   UNL     1      35.565 -23.090 -15.704  0.00  0.00    +0.147 C 
ATOM     32  C   UNL     1      36.819 -23.333 -15.184  0.00  0.00    +0.055 C 
ATOM     33  C   UNL     1      37.878 -22.869 -15.937  0.00  0.00    +0.114 C 
ATOM     34  H   UNL     1      37.113 -21.089 -19.168  0.00  0.00    +0.165 HD
BRANCH  31  36
ATOM     35  N   UNL     1      33.374 -24.545 -13.063  0.00  0.00    -0.242 NA
ATOM     36  C   UNL     1      34.374 -23.525 -15.014  0.00  0.00    +0.050 C 
ATOM     37  C   UNL     1      33.115 -23.364 -15.583  0.00  0.00    +0.006 C 
ATOM     38  C   UNL     1      34.448 -24.116 -13.763  0.00  0.00    +0.101 C 
ATOM     39  C   UNL     1      31.986 -23.794 -14.894  0.00  0.00    +0.021 C 
ATOM     40  C   UNL     1      32.168 -24.372 -13.648  0.00  0.00    +0.099 C 
ENDBRANCH  31  36
ENDBRANCH  23  27
ENDBRANCH   2  21
TORSDOF 6
ENDMDL
MODEL 7
REMARK VINA RESULT:     -11.2      2.691     13.972
REMARK  Name = 4369496
REMARK  6 active torsions:
REMARK  status: ('A' for Active; 'I' for Inactive)
REMARK    1  A    between atoms: N_2  and  C_21
REMARK    2  A    between atoms: C_3  and  C_10
REMARK    3  A    between atoms: C_5  and  C_11
REMARK    4  A    between atoms: C_11  and  N_12
REMARK    5  A    between atoms: C_23  and  N_27
REMARK    6  A    between atoms: C_31  and  C_36
REMARK                            x       y       z     vdW  Elec       q    Type
REMARK                         _______ _______ _______ _____ _____    ______ ____
ROOT
ATOM      1  O   UNL     1      33.474 -15.688 -24.863  0.00  0.00    -0.270 OA
ATOM      2  N   UNL     1      34.388 -14.210 -23.287  0.00  0.00    -0.280 N 
ATOM      3  C   UNL     1      34.138 -15.476 -23.836  0.00  0.00    +0.249 C 
ATOM      4  H   UNL     1      34.932 -14.200 -22.467  0.00  0.00    +0.155 HD
ENDROOT
BRANCH   3  10
ATOM      5  C   UNL     1      35.745 -18.762 -21.713  0.00  0.00    -0.043 C 
ATOM      6  C   UNL     1      35.552 -18.863 -23.083  0.00  0.00    -0.006 C 
ATOM      7  C   UNL     1      35.419 -17.600 -21.028  0.00  0.00    -0.006 C 
ATOM      8  C   UNL     1      35.023 -17.779 -23.783  0.00  0.00    +0.004 C 
ATOM      9  C   UNL     1      34.890 -16.516 -21.728  0.00  0.00    +0.004 C 
ATOM     10  C   UNL     1      34.691 -16.605 -23.106  0.00  0.00    +0.054 C 
BRANCH   5  11
ATOM     11  C   UNL     1      36.318 -19.932 -20.956  0.00  0.00    -0.050 C 
BRANCH  11  12
ATOM     12  N   UNL     1      35.403 -20.411 -19.921  0.00  0.00    +0.387 N 
ATOM     13  N   UNL     1      33.709 -22.415 -18.707  0.00  0.00    +0.383 N 
ATOM     14  C   UNL     1      35.973 -21.564 -19.215  0.00  0.00    -0.100 C 
ATOM     15  C   UNL     1      34.099 -20.757 -20.499  0.00  0.00    -0.100 C 
ATOM     16  C   UNL     1      35.015 -22.069 -18.132  0.00  0.00    -0.101 C 
ATOM     17  C   UNL     1      33.139 -21.261 -19.416  0.00  0.00    -0.101 C 
ATOM     18  C   UNL     1      32.795 -22.892 -17.672  0.00  0.00    -0.101 C 
ATOM     19  H   UNL     1      35.267 -19.658 -19.248  0.00  0.00    -0.079 HD
ATOM     20  H   UNL     1      33.845 -23.170 -19.380  0.00  0.00    -0.080 HD
ENDBRANCH  11  12
ENDBRANCH   5  11
ENDBRANCH   3  10
BRANCH   2  21
ATOM     21  C   UNL     1      33.960 -12.945 -23.758  0.00  0.00    +0.052 C 
ATOM     22  C   UNL     1      33.419 -12.038 -22.863  0.00  0.00    +0.030 C 
ATOM     23  C   UNL     1      32.997 -10.792 -23.328  0.00  0.00    +0.059 C 
ATOM     24  C   UNL     1      34.093 -12.644 -25.103  0.00  0.00    +0.015 C 
ATOM     25  C   UNL     1      33.124 -10.472 -24.680  0.00  0.00    +0.015 C 
ATOM     26  C   UNL     1      33.672 -11.398 -25.567  0.00  0.00    +0.003 C 
BRANCH  23  27
ATOM     27  N   UNL     1      32.445  -9.854 -22.430  0.00  0.00    -0.247 N 
ATOM     28  N   UNL     1      32.729  -7.843 -23.605  0.00  0.00    -0.337 NA
ATOM     29  N   UNL     1      31.703  -7.869 -21.425  0.00  0.00    -0.170 NA
ATOM     30  C   UNL     1      32.285  -8.457 -22.490  0.00  0.00    +0.149 C 
ATOM     31  C   UNL     1      32.559  -6.505 -23.628  0.00  0.00    +0.147 C 
ATOM     32  C   UNL     1      31.978  -5.788 -22.602  0.00  0.00    +0.055 C 
ATOM     33  C   UNL     1      31.565  -6.530 -21.515  0.00  0.00    +0.114 C 
ATOM     34  H   UNL     1      32.105 -10.257 -21.598  0.00  0.00    +0.165 HD
BRANCH  31  36
ATOM     35  N   UNL     1      32.658  -4.224 -26.574  0.00  0.00    -0.242 NA
ATOM     36  C   UNL     1      33.034  -5.847 -24.822  0.00  0.00    +0.050 C 
ATOM     37  C   UNL     1      34.270  -6.167 -25.374  0.00  0.00    +0.006 C 
ATOM     38  C   UNL     1      32.273  -4.878 -25.455  0.00  0.00    +0.101 C 
ATOM     39  C   UNL     1      34.699  -5.517 -26.526  0.00  0.00    +0.021 C 
ATOM     40  C   UNL     1      33.864  -4.562 -27.081  0.00  0.00    +0.099 C 
ENDBRANCH  31  36
ENDBRANCH  23  27
ENDBRANCH   2  21
TORSDOF 6
ENDMDL
MODEL 8
REMARK VINA RESULT:     -11.2      3.967      8.132
REMARK  Name = 4369496
REMARK  6 active torsions:
REMARK  status: ('A' for Active; 'I' for Inactive)
REMARK    1  A    between atoms: N_2  and  C_21
REMARK    2  A    between atoms: C_3  and  C_10
REMARK    3  A    between atoms: C_5  and  C_11
REMARK    4  A    between atoms: C_11  and  N_12
REMARK    5  A    between atoms: C_23  and  N_27
REMARK    6  A    between atoms: C_31  and  C_36
REMARK                            x       y       z     vdW  Elec       q    Type
REMARK                         _______ _______ _______ _____ _____    ______ ____
ROOT
ATOM      1  O   UNL     1      31.709 -10.296 -20.281  0.00  0.00    -0.270 OA
ATOM      2  N   UNL     1      32.280 -11.088 -22.414  0.00  0.00    -0.280 N 
ATOM      3  C   UNL     1      31.902 -10.102 -21.492  0.00  0.00    +0.249 C 
ATOM      4  H   UNL     1      32.396 -10.782 -23.342  0.00  0.00    +0.155 HD
ENDROOT
BRANCH   3  10
ATOM      5  C   UNL     1      31.332  -6.220 -23.071  0.00  0.00    -0.043 C 
ATOM      6  C   UNL     1      30.940  -7.324 -23.814  0.00  0.00    -0.006 C 
ATOM      7  C   UNL     1      31.908  -6.369 -21.818  0.00  0.00    -0.006 C 
ATOM      8  C   UNL     1      31.127  -8.604 -23.293  0.00  0.00    +0.004 C 
ATOM      9  C   UNL     1      32.095  -7.649 -21.296  0.00  0.00    +0.004 C 
ATOM     10  C   UNL     1      31.705  -8.767 -22.034  0.00  0.00    +0.054 C 
BRANCH   5  11
ATOM     11  C   UNL     1      31.129  -4.837 -23.633  0.00  0.00    -0.050 C 
BRANCH  11  12
ATOM     12  N   UNL     1      31.543  -4.752 -25.032  0.00  0.00    +0.387 N 
ATOM     13  N   UNL     1      33.238  -3.780 -27.163  0.00  0.00    +0.383 N 
ATOM     14  C   UNL     1      32.913  -5.248 -25.201  0.00  0.00    -0.100 C 
ATOM     15  C   UNL     1      31.432  -3.374 -25.526  0.00  0.00    -0.100 C 
ATOM     16  C   UNL     1      33.349  -5.158 -26.668  0.00  0.00    -0.101 C 
ATOM     17  C   UNL     1      31.867  -3.283 -26.992  0.00  0.00    -0.101 C 
ATOM     18  C   UNL     1      33.650  -3.696 -28.562  0.00  0.00    -0.101 C 
ATOM     19  H   UNL     1      30.918  -5.342 -25.582  0.00  0.00    -0.079 HD
ATOM     20  H   UNL     1      33.864  -3.190 -26.614  0.00  0.00    -0.080 HD
ENDBRANCH  11  12
ENDBRANCH   5  11
ENDBRANCH   3  10
BRANCH   2  21
ATOM     21  C   UNL     1      32.518 -12.465 -22.185  0.00  0.00    +0.052 C 
ATOM     22  C   UNL     1      33.007 -13.248 -23.217  0.00  0.00    +0.030 C 
ATOM     23  C   UNL     1      33.238 -14.605 -22.992  0.00  0.00    +0.059 C 
ATOM     24  C   UNL     1      32.254 -12.997 -20.935  0.00  0.00    +0.015 C 
ATOM     25  C   UNL     1      32.979 -15.158 -21.738  0.00  0.00    +0.015 C 
ATOM     26  C   UNL     1      32.487 -14.354 -20.709  0.00  0.00    +0.003 C 
BRANCH  23  27
ATOM     27  N   UNL     1      33.738 -15.417 -24.032  0.00  0.00    -0.247 N 
ATOM     28  N   UNL     1      34.071 -17.459 -22.924  0.00  0.00    -0.337 NA
ATOM     29  N   UNL     1      34.584 -17.223 -25.267  0.00  0.00    -0.170 NA
ATOM     30  C   UNL     1      34.151 -16.763 -24.076  0.00  0.00    +0.149 C 
ATOM     31  C   UNL     1      34.474 -18.744 -23.003  0.00  0.00    +0.147 C 
ATOM     32  C   UNL     1      34.938 -19.332 -24.162  0.00  0.00    +0.055 C 
ATOM     33  C   UNL     1      34.972 -18.516 -25.274  0.00  0.00    +0.114 C 
ATOM     34  H   UNL     1      33.813 -14.951 -24.895  0.00  0.00    +0.165 HD
BRANCH  31  36
ATOM     35  N   UNL     1      35.520 -20.581 -19.933  0.00  0.00    -0.242 NA
ATOM     36  C   UNL     1      34.388 -19.490 -21.771  0.00  0.00    +0.050 C 
ATOM     37  C   UNL     1      33.156 -19.839 -21.227  0.00  0.00    +0.006 C 
ATOM     38  C   UNL     1      35.530 -19.882 -21.091  0.00  0.00    +0.101 C 
ATOM     39  C   UNL     1      33.106 -20.558 -20.038  0.00  0.00    +0.021 C 
ATOM     40  C   UNL     1      34.305 -20.901 -19.436  0.00  0.00    +0.099 C 
ENDBRANCH  31  36
ENDBRANCH  23  27
ENDBRANCH   2  21
TORSDOF 6
ENDMDL
MODEL 9
REMARK VINA RESULT:     -11.1      2.742      5.675
REMARK  Name = 4369496
REMARK  6 active torsions:
REMARK  status: ('A' for Active; 'I' for Inactive)
REMARK    1  A    between atoms: N_2  and  C_21
REMARK    2  A    between atoms: C_3  and  C_10
REMARK    3  A    between atoms: C_5  and  C_11
REMARK    4  A    between atoms: C_11  and  N_12
REMARK    5  A    between atoms: C_23  and  N_27
REMARK    6  A    between atoms: C_31  and  C_36
REMARK                            x       y       z     vdW  Elec       q    Type
REMARK                         _______ _______ _______ _____ _____    ______ ____
ROOT
ATOM      1  O   UNL     1      34.178 -23.516 -17.940  0.00  0.00    -0.270 OA
ATOM      2  N   UNL     1      32.148 -22.414 -17.526  0.00  0.00    -0.280 N 
ATOM      3  C   UNL     1      33.372 -22.603 -18.183  0.00  0.00    +0.249 C 
ATOM      4  H   UNL     1      31.616 -21.644 -17.829  0.00  0.00    +0.155 HD
ENDROOT
BRANCH   3  10
ATOM      5  C   UNL     1      34.336 -19.744 -21.148  0.00  0.00    -0.043 C 
ATOM      6  C   UNL     1      35.356 -20.423 -20.496  0.00  0.00    -0.006 C 
ATOM      7  C   UNL     1      33.005 -19.989 -20.843  0.00  0.00    -0.006 C 
ATOM      8  C   UNL     1      35.038 -21.366 -19.519  0.00  0.00    +0.004 C 
ATOM      9  C   UNL     1      32.687 -20.932 -19.866  0.00  0.00    +0.004 C 
ATOM     10  C   UNL     1      33.703 -21.621 -19.203  0.00  0.00    +0.054 C 
BRANCH   5  11
ATOM     11  C   UNL     1      34.679 -18.727 -22.204  0.00  0.00    -0.050 C 
BRANCH  11  12
ATOM     12  N   UNL     1      34.403 -17.363 -21.755  0.00  0.00    +0.387 N 
ATOM     13  N   UNL     1      32.968 -14.856 -21.864  0.00  0.00    +0.383 N 
ATOM     14  C   UNL     1      33.031 -17.249 -21.248  0.00  0.00    -0.100 C 
ATOM     15  C   UNL     1      34.631 -16.401 -22.840  0.00  0.00    -0.100 C 
ATOM     16  C   UNL     1      32.740 -15.819 -20.780  0.00  0.00    -0.101 C 
ATOM     17  C   UNL     1      34.341 -14.971 -22.372  0.00  0.00    -0.101 C 
ATOM     18  C   UNL     1      32.694 -13.493 -21.414  0.00  0.00    -0.101 C 
ATOM     19  H   UNL     1      35.046 -17.146 -20.994  0.00  0.00    -0.079 HD
ATOM     20  H   UNL     1      32.324 -15.071 -22.626  0.00  0.00    -0.080 HD
ENDBRANCH  11  12
ENDBRANCH   5  11
ENDBRANCH   3  10
BRANCH   2  21
ATOM     21  C   UNL     1      31.578 -23.187 -16.485  0.00  0.00    +0.052 C 
ATOM     22  C   UNL     1      32.347 -23.501 -15.377  0.00  0.00    +0.030 C 
ATOM     23  C   UNL     1      31.785 -24.263 -14.352  0.00  0.00    +0.059 C 
ATOM     24  C   UNL     1      30.265 -23.610 -16.599  0.00  0.00    +0.015 C 
ATOM     25  C   UNL     1      30.463 -24.698 -14.451  0.00  0.00    +0.015 C 
ATOM     26  C   UNL     1      29.703 -24.371 -15.574  0.00  0.00    +0.003 C 
BRANCH  23  27
ATOM     27  N   UNL     1      32.553 -24.591 -13.216  0.00  0.00    -0.247 N 
ATOM     28  N   UNL     1      34.718 -24.030 -13.925  0.00  0.00    -0.337 NA
ATOM     29  N   UNL     1      34.330 -24.923 -11.720  0.00  0.00    -0.170 NA
ATOM     30  C   UNL     1      33.932 -24.511 -12.941  0.00  0.00    +0.149 C 
ATOM     31  C   UNL     1      36.033 -23.968 -13.627  0.00  0.00    +0.147 C 
ATOM     32  C   UNL     1      36.563 -24.358 -12.415  0.00  0.00    +0.055 C 
ATOM     33  C   UNL     1      35.656 -24.833 -11.490  0.00  0.00    +0.114 C 
ATOM     34  H   UNL     1      32.020 -24.947 -12.468  0.00  0.00    +0.165 HD
BRANCH  31  36
ATOM     35  N   UNL     1      38.979 -23.533 -15.867  0.00  0.00    -0.242 NA
ATOM     36  C   UNL     1      36.875 -23.452 -14.679  0.00  0.00    +0.050 C 
ATOM     37  C   UNL     1      36.442 -22.419 -15.504  0.00  0.00    +0.006 C 
ATOM     38  C   UNL     1      38.141 -23.969 -14.900  0.00  0.00    +0.101 C 
ATOM     39  C   UNL     1      37.276 -21.943 -16.510  0.00  0.00    +0.021 C 
ATOM     40  C   UNL     1      38.524 -22.529 -16.648  0.00  0.00    +0.099 C 
ENDBRANCH  31  36
ENDBRANCH  23  27
ENDBRANCH   2  21
TORSDOF 6
ENDMDL
