MODEL 1
REMARK VINA RESULT:      -6.3      0.000      0.000
REMARK  Name = 446586
REMARK  5 active torsions:
REMARK  status: ('A' for Active; 'I' for Inactive)
REMARK    1  A    between atoms: C_2  and  O_7
REMARK    2  A    between atoms: C_3  and  O_9
REMARK    3  A    between atoms: C_4  and  C_13
REMARK    4  A    between atoms: C_6  and  O_11
REMARK    5  A    between atoms: C_13  and  O_14
REMARK                            x       y       z     vdW  Elec       q    Type
REMARK                         _______ _______ _______ _____ _____    ______ ____
ROOT
ATOM      1  O   UNL     1      38.704 -24.387 -13.285  0.00  0.00    -0.328 OA
ATOM      2  C   UNL     1      36.367 -25.008 -13.599  0.00  0.00    +0.167 C 
ATOM      3  C   UNL     1      36.751 -25.781 -14.862  0.00  0.00    +0.145 C 
ATOM      4  C   UNL     1      37.367 -23.871 -13.356  0.00  0.00    +0.176 C 
ATOM      5  C   UNL     1      38.209 -26.233 -14.805  0.00  0.00    +0.093 C 
ATOM      6  C   UNL     1      39.130 -25.061 -14.472  0.00  0.00    +0.234 C 
ENDROOT
BRANCH   2   7
ATOM      7  O   UNL     1      36.344 -25.892 -12.476  0.00  0.00    -0.379 OA
ATOM      8  H   UNL     1      36.466 -25.382 -11.660  0.00  0.00    +0.211 HD
ENDBRANCH   2   7
BRANCH   3   9
ATOM      9  O   UNL     1      35.893 -26.905 -15.018  0.00  0.00    -0.382 OA
ATOM     10  H   UNL     1      35.434 -26.846 -15.870  0.00  0.00    +0.210 HD
ENDBRANCH   3   9
BRANCH   6  11
ATOM     11  O   UNL     1      39.213 -24.186 -15.594  0.00  0.00    -0.360 OA
ATOM     12  H   UNL     1      39.930 -24.478 -16.179  0.00  0.00    +0.213 HD
ENDBRANCH   6  11
BRANCH   4  13
ATOM     13  C   UNL     1      37.097 -23.131 -12.051  0.00  0.00    +0.169 C 
BRANCH  13  14
ATOM     14  O   UNL     1      38.327 -22.649 -11.542  0.00  0.00    -0.379 OA
ATOM     15  H   UNL     1      39.061 -23.050 -12.034  0.00  0.00    +0.211 HD
ENDBRANCH  13  14
ENDBRANCH   4  13
TORSDOF 5
ENDMDL
MODEL 2
REMARK VINA RESULT:      -6.2      1.525      3.499
REMARK  Name = 446586
REMARK  5 active torsions:
REMARK  status: ('A' for Active; 'I' for Inactive)
REMARK    1  A    between atoms: C_2  and  O_7
REMARK    2  A    between atoms: C_3  and  O_9
REMARK    3  A    between atoms: C_4  and  C_13
REMARK    4  A    between atoms: C_6  and  O_11
REMARK    5  A    between atoms: C_13  and  O_14
REMARK                            x       y       z     vdW  Elec       q    Type
REMARK                         _______ _______ _______ _____ _____    ______ ____
ROOT
ATOM      1  O   UNL     1      38.699 -25.186 -12.879  0.00  0.00    -0.328 OA
ATOM      2  C   UNL     1      37.977 -25.158 -15.209  0.00  0.00    +0.167 C 
ATOM      3  C   UNL     1      36.520 -25.114 -14.747  0.00  0.00    +0.145 C 
ATOM      4  C   UNL     1      38.844 -25.845 -14.145  0.00  0.00    +0.176 C 
ATOM      5  C   UNL     1      36.405 -24.499 -13.353  0.00  0.00    +0.093 C 
ATOM      6  C   UNL     1      37.361 -25.180 -12.376  0.00  0.00    +0.234 C 
ENDROOT
BRANCH   2   7
ATOM      7  O   UNL     1      38.452 -23.830 -15.446  0.00  0.00    -0.379 OA
ATOM      8  H   UNL     1      39.303 -23.869 -15.908  0.00  0.00    +0.211 HD
ENDBRANCH   2   7
BRANCH   3   9
ATOM      9  O   UNL     1      35.742 -24.372 -15.679  0.00  0.00    -0.382 OA
ATOM     10  H   UNL     1      36.323 -24.002 -16.362  0.00  0.00    +0.210 HD
ENDBRANCH   3   9
BRANCH   6  11
ATOM     11  O   UNL     1      36.886 -26.491 -12.080  0.00  0.00    -0.360 OA
ATOM     12  H   UNL     1      35.916 -26.492 -12.088  0.00  0.00    +0.213 HD
ENDBRANCH   6  11
BRANCH   4  13
ATOM     13  C   UNL     1      40.325 -25.823 -14.502  0.00  0.00    +0.169 C 
BRANCH  13  14
ATOM     14  O   UNL     1      40.453 -25.944 -15.907  0.00  0.00    -0.379 OA
ATOM     15  H   UNL     1      40.994 -25.215 -16.247  0.00  0.00    +0.211 HD
ENDBRANCH  13  14
ENDBRANCH   4  13
TORSDOF 5
ENDMDL
MODEL 3
REMARK VINA RESULT:      -6.0      1.865      3.384
REMARK  Name = 446586
REMARK  5 active torsions:
REMARK  status: ('A' for Active; 'I' for Inactive)
REMARK    1  A    between atoms: C_2  and  O_7
REMARK    2  A    between atoms: C_3  and  O_9
REMARK    3  A    between atoms: C_4  and  C_13
REMARK    4  A    between atoms: C_6  and  O_11
REMARK    5  A    between atoms: C_13  and  O_14
REMARK                            x       y       z     vdW  Elec       q    Type
REMARK                         _______ _______ _______ _____ _____    ______ ____
ROOT
ATOM      1  O   UNL     1      38.107 -26.673 -14.266  0.00  0.00    -0.328 OA
ATOM      2  C   UNL     1      38.187 -24.266 -14.649  0.00  0.00    +0.167 C 
ATOM      3  C   UNL     1      36.792 -24.328 -15.273  0.00  0.00    +0.145 C 
ATOM      4  C   UNL     1      38.899 -25.614 -14.821  0.00  0.00    +0.176 C 
ATOM      5  C   UNL     1      36.006 -25.524 -14.738  0.00  0.00    +0.093 C 
ATOM      6  C   UNL     1      36.818 -26.811 -14.867  0.00  0.00    +0.234 C 
ENDROOT
BRANCH   2   7
ATOM      7  O   UNL     1      38.085 -23.939 -13.261  0.00  0.00    -0.379 OA
ATOM      8  H   UNL     1      38.589 -23.130 -13.081  0.00  0.00    +0.211 HD
ENDBRANCH   2   7
BRANCH   3   9
ATOM      9  O   UNL     1      36.092 -23.119 -15.007  0.00  0.00    -0.382 OA
ATOM     10  H   UNL     1      36.728 -22.412 -14.816  0.00  0.00    +0.210 HD
ENDBRANCH   3   9
BRANCH   6  11
ATOM     11  O   UNL     1      36.895 -27.192 -16.238  0.00  0.00    -0.360 OA
ATOM     12  H   UNL     1      36.424 -28.031 -16.367  0.00  0.00    +0.213 HD
ENDBRANCH   6  11
BRANCH   4  13
ATOM     13  C   UNL     1      40.255 -25.647 -14.124  0.00  0.00    +0.169 C 
BRANCH  13  14
ATOM     14  O   UNL     1      40.999 -26.738 -14.635  0.00  0.00    -0.379 OA
ATOM     15  H   UNL     1      41.947 -26.546 -14.562  0.00  0.00    +0.211 HD
ENDBRANCH  13  14
ENDBRANCH   4  13
TORSDOF 5
ENDMDL
MODEL 4
REMARK VINA RESULT:      -5.9      2.071      2.395
REMARK  Name = 446586
REMARK  5 active torsions:
REMARK  status: ('A' for Active; 'I' for Inactive)
REMARK    1  A    between atoms: C_2  and  O_7
REMARK    2  A    between atoms: C_3  and  O_9
REMARK    3  A    between atoms: C_4  and  C_13
REMARK    4  A    between atoms: C_6  and  O_11
REMARK    5  A    between atoms: C_13  and  O_14
REMARK                            x       y       z     vdW  Elec       q    Type
REMARK                         _______ _______ _______ _____ _____    ______ ____
ROOT
ATOM      1  O   UNL     1      36.771 -25.987 -12.135  0.00  0.00    -0.328 OA
ATOM      2  C   UNL     1      35.719 -24.220 -13.447  0.00  0.00    +0.167 C 
ATOM      3  C   UNL     1      36.361 -24.791 -14.713  0.00  0.00    +0.145 C 
ATOM      4  C   UNL     1      36.576 -24.569 -12.222  0.00  0.00    +0.176 C 
ATOM      5  C   UNL     1      36.650 -26.283 -14.555  0.00  0.00    +0.093 C 
ATOM      6  C   UNL     1      37.429 -26.555 -13.270  0.00  0.00    +0.234 C 
ENDROOT
BRANCH   2   7
ATOM      7  O   UNL     1      34.400 -24.749 -13.290  0.00  0.00    -0.379 OA
ATOM      8  H   UNL     1      34.432 -25.534 -12.722  0.00  0.00    +0.211 HD
ENDBRANCH   2   7
BRANCH   3   9
ATOM      9  O   UNL     1      35.505 -24.570 -15.827  0.00  0.00    -0.382 OA
ATOM     10  H   UNL     1      34.679 -25.063 -15.703  0.00  0.00    +0.210 HD
ENDBRANCH   3   9
BRANCH   6  11
ATOM     11  O   UNL     1      38.766 -26.084 -13.414  0.00  0.00    -0.360 OA
ATOM     12  H   UNL     1      39.000 -26.059 -14.356  0.00  0.00    +0.213 HD
ENDBRANCH   6  11
BRANCH   4  13
ATOM     13  C   UNL     1      35.931 -24.117 -10.917  0.00  0.00    +0.169 C 
BRANCH  13  14
ATOM     14  O   UNL     1      35.218 -25.208 -10.364  0.00  0.00    -0.379 OA
ATOM     15  H   UNL     1      34.452 -25.411 -10.923  0.00  0.00    +0.211 HD
ENDBRANCH  13  14
ENDBRANCH   4  13
TORSDOF 5
ENDMDL
MODEL 5
REMARK VINA RESULT:      -5.9      2.063      3.554
REMARK  Name = 446586
REMARK  5 active torsions:
REMARK  status: ('A' for Active; 'I' for Inactive)
REMARK    1  A    between atoms: C_2  and  O_7
REMARK    2  A    between atoms: C_3  and  O_9
REMARK    3  A    between atoms: C_4  and  C_13
REMARK    4  A    between atoms: C_6  and  O_11
REMARK    5  A    between atoms: C_13  and  O_14
REMARK                            x       y       z     vdW  Elec       q    Type
REMARK                         _______ _______ _______ _____ _____    ______ ____
ROOT
ATOM      1  O   UNL     1      36.486 -24.988 -14.499  0.00  0.00    -0.328 OA
ATOM      2  C   UNL     1      37.107 -25.221 -12.152  0.00  0.00    +0.167 C 
ATOM      3  C   UNL     1      35.849 -24.449 -11.752  0.00  0.00    +0.145 C 
ATOM      4  C   UNL     1      37.553 -24.802 -13.559  0.00  0.00    +0.176 C 
ATOM      5  C   UNL     1      34.762 -24.581 -12.818  0.00  0.00    +0.093 C 
ATOM      6  C   UNL     1      35.310 -24.231 -14.200  0.00  0.00    +0.234 C 
ENDROOT
BRANCH   2   7
ATOM      7  O   UNL     1      36.847 -26.626 -12.117  0.00  0.00    -0.379 OA
ATOM      8  H   UNL     1      37.519 -27.093 -12.638  0.00  0.00    +0.211 HD
ENDBRANCH   2   7
BRANCH   3   9
ATOM      9  O   UNL     1      35.371 -24.925 -10.500  0.00  0.00    -0.382 OA
ATOM     10  H   UNL     1      34.844 -24.233 -10.070  0.00  0.00    +0.210 HD
ENDBRANCH   3   9
BRANCH   6  11
ATOM     11  O   UNL     1      35.532 -22.826 -14.284  0.00  0.00    -0.360 OA
ATOM     12  H   UNL     1      34.678 -22.366 -14.319  0.00  0.00    +0.213 HD
ENDBRANCH   6  11
BRANCH   4  13
ATOM     13  C   UNL     1      38.742 -25.616 -14.056  0.00  0.00    +0.169 C 
BRANCH  13  14
ATOM     14  O   UNL     1      38.263 -26.835 -14.593  0.00  0.00    -0.379 OA
ATOM     15  H   UNL     1      38.160 -26.748 -15.553  0.00  0.00    +0.211 HD
ENDBRANCH  13  14
ENDBRANCH   4  13
TORSDOF 5
ENDMDL
MODEL 6
REMARK VINA RESULT:      -5.8      1.864      3.147
REMARK  Name = 446586
REMARK  5 active torsions:
REMARK  status: ('A' for Active; 'I' for Inactive)
REMARK    1  A    between atoms: C_2  and  O_7
REMARK    2  A    between atoms: C_3  and  O_9
REMARK    3  A    between atoms: C_4  and  C_13
REMARK    4  A    between atoms: C_6  and  O_11
REMARK    5  A    between atoms: C_13  and  O_14
REMARK                            x       y       z     vdW  Elec       q    Type
REMARK                         _______ _______ _______ _____ _____    ______ ____
ROOT
ATOM      1  O   UNL     1      36.738 -23.790 -13.196  0.00  0.00    -0.328 OA
ATOM      2  C   UNL     1      38.090 -24.684 -15.019  0.00  0.00    +0.167 C 
ATOM      3  C   UNL     1      39.018 -25.341 -13.996  0.00  0.00    +0.145 C 
ATOM      4  C   UNL     1      37.428 -23.444 -14.405  0.00  0.00    +0.176 C 
ATOM      5  C   UNL     1      38.285 -25.609 -12.683  0.00  0.00    +0.093 C 
ATOM      6  C   UNL     1      37.581 -24.347 -12.185  0.00  0.00    +0.234 C 
ENDROOT
BRANCH   2   7
ATOM      7  O   UNL     1      37.091 -25.617 -15.438  0.00  0.00    -0.379 OA
ATOM      8  H   UNL     1      37.471 -26.227 -16.090  0.00  0.00    +0.211 HD
ENDBRANCH   2   7
BRANCH   3   9
ATOM      9  O   UNL     1      39.536 -26.555 -14.527  0.00  0.00    -0.382 OA
ATOM     10  H   UNL     1      38.813 -27.073 -14.914  0.00  0.00    +0.210 HD
ENDBRANCH   3   9
BRANCH   6  11
ATOM     11  O   UNL     1      38.551 -23.416 -11.712  0.00  0.00    -0.360 OA
ATOM     12  H   UNL     1      38.799 -22.815 -12.432  0.00  0.00    +0.213 HD
ENDBRANCH   6  11
BRANCH   4  13
ATOM     13  C   UNL     1      36.409 -22.807 -15.343  0.00  0.00    +0.169 C 
BRANCH  13  14
ATOM     14  O   UNL     1      36.857 -22.972 -16.676  0.00  0.00    -0.379 OA
ATOM     15  H   UNL     1      37.799 -23.205 -16.675  0.00  0.00    +0.211 HD
ENDBRANCH  13  14
ENDBRANCH   4  13
TORSDOF 5
ENDMDL
MODEL 7
REMARK VINA RESULT:      -5.7      1.445      3.013
REMARK  Name = 446586
REMARK  5 active torsions:
REMARK  status: ('A' for Active; 'I' for Inactive)
REMARK    1  A    between atoms: C_2  and  O_7
REMARK    2  A    between atoms: C_3  and  O_9
REMARK    3  A    between atoms: C_4  and  C_13
REMARK    4  A    between atoms: C_6  and  O_11
REMARK    5  A    between atoms: C_13  and  O_14
REMARK                            x       y       z     vdW  Elec       q    Type
REMARK                         _______ _______ _______ _____ _____    ______ ____
ROOT
ATOM      1  O   UNL     1      35.748 -24.822 -13.734  0.00  0.00    -0.328 OA
ATOM      2  C   UNL     1      37.833 -24.665 -12.480  0.00  0.00    +0.167 C 
ATOM      3  C   UNL     1      38.556 -25.403 -13.608  0.00  0.00    +0.145 C 
ATOM      4  C   UNL     1      36.352 -25.066 -12.457  0.00  0.00    +0.176 C 
ATOM      5  C   UNL     1      37.835 -25.209 -14.940  0.00  0.00    +0.093 C 
ATOM      6  C   UNL     1      36.351 -25.545 -14.811  0.00  0.00    +0.234 C 
ENDROOT
BRANCH   2   7
ATOM      7  O   UNL     1      37.956 -23.252 -12.665  0.00  0.00    -0.379 OA
ATOM      8  H   UNL     1      37.187 -22.807 -12.277  0.00  0.00    +0.211 HD
ENDBRANCH   2   7
BRANCH   3   9
ATOM      9  O   UNL     1      39.898 -24.939 -13.702  0.00  0.00    -0.382 OA
ATOM     10  H   UNL     1      40.497 -25.606 -13.331  0.00  0.00    +0.210 HD
ENDBRANCH   3   9
BRANCH   6  11
ATOM     11  O   UNL     1      36.191 -26.955 -14.675  0.00  0.00    -0.360 OA
ATOM     12  H   UNL     1      36.150 -27.186 -13.734  0.00  0.00    +0.213 HD
ENDBRANCH   6  11
BRANCH   4  13
ATOM     13  C   UNL     1      35.555 -24.282 -11.421  0.00  0.00    +0.169 C 
BRANCH  13  14
ATOM     14  O   UNL     1      35.312 -25.122 -10.307  0.00  0.00    -0.379 OA
ATOM     15  H   UNL     1      35.888 -25.900 -10.357  0.00  0.00    +0.211 HD
ENDBRANCH  13  14
ENDBRANCH   4  13
TORSDOF 5
ENDMDL
MODEL 8
REMARK VINA RESULT:      -5.7      1.820      3.937
REMARK  Name = 446586
REMARK  5 active torsions:
REMARK  status: ('A' for Active; 'I' for Inactive)
REMARK    1  A    between atoms: C_2  and  O_7
REMARK    2  A    between atoms: C_3  and  O_9
REMARK    3  A    between atoms: C_4  and  C_13
REMARK    4  A    between atoms: C_6  and  O_11
REMARK    5  A    between atoms: C_13  and  O_14
REMARK                            x       y       z     vdW  Elec       q    Type
REMARK                         _______ _______ _______ _____ _____    ______ ____
ROOT
ATOM      1  O   UNL     1      37.616 -25.473 -13.126  0.00  0.00    -0.328 OA
ATOM      2  C   UNL     1      36.059 -24.823 -14.886  0.00  0.00    +0.167 C 
ATOM      3  C   UNL     1      35.392 -23.841 -13.921  0.00  0.00    +0.145 C 
ATOM      4  C   UNL     1      36.695 -25.978 -14.102  0.00  0.00    +0.176 C 
ATOM      5  C   UNL     1      36.367 -23.396 -12.832  0.00  0.00    +0.093 C 
ATOM      6  C   UNL     1      37.021 -24.602 -12.160  0.00  0.00    +0.234 C 
ENDROOT
BRANCH   2   7
ATOM      7  O   UNL     1      37.055 -24.145 -15.657  0.00  0.00    -0.379 OA
ATOM      8  H   UNL     1      37.161 -24.592 -16.512  0.00  0.00    +0.211 HD
ENDBRANCH   2   7
BRANCH   3   9
ATOM      9  O   UNL     1      34.909 -22.713 -14.641  0.00  0.00    -0.382 OA
ATOM     10  H   UNL     1      34.117 -22.365 -14.203  0.00  0.00    +0.210 HD
ENDBRANCH   3   9
BRANCH   6  11
ATOM     11  O   UNL     1      36.065 -25.270 -11.342  0.00  0.00    -0.360 OA
ATOM     12  H   UNL     1      36.330 -25.200 -10.412  0.00  0.00    +0.213 HD
ENDBRANCH   6  11
BRANCH   4  13
ATOM     13  C   UNL     1      37.468 -26.934 -15.003  0.00  0.00    +0.169 C 
BRANCH  13  14
ATOM     14  O   UNL     1      36.736 -27.115 -16.202  0.00  0.00    -0.379 OA
ATOM     15  H   UNL     1      37.225 -27.707 -16.794  0.00  0.00    +0.211 HD
ENDBRANCH  13  14
ENDBRANCH   4  13
TORSDOF 5
ENDMDL
MODEL 9
REMARK VINA RESULT:      -5.7      1.489      3.508
REMARK  Name = 446586
REMARK  5 active torsions:
REMARK  status: ('A' for Active; 'I' for Inactive)
REMARK    1  A    between atoms: C_2  and  O_7
REMARK    2  A    between atoms: C_3  and  O_9
REMARK    3  A    between atoms: C_4  and  C_13
REMARK    4  A    between atoms: C_6  and  O_11
REMARK    5  A    between atoms: C_13  and  O_14
REMARK                            x       y       z     vdW  Elec       q    Type
REMARK                         _______ _______ _______ _____ _____    ______ ____
ROOT
ATOM      1  O   UNL     1      37.596 -23.417 -13.551  0.00  0.00    -0.328 OA
ATOM      2  C   UNL     1      36.352 -25.347 -12.729  0.00  0.00    +0.167 C 
ATOM      3  C   UNL     1      36.418 -24.774 -11.312  0.00  0.00    +0.145 C 
ATOM      4  C   UNL     1      37.549 -24.851 -13.551  0.00  0.00    +0.176 C 
ATOM      5  C   UNL     1      36.568 -23.254 -11.343  0.00  0.00    +0.093 C 
ATOM      6  C   UNL     1      37.725 -22.839 -12.250  0.00  0.00    +0.234 C 
ENDROOT
BRANCH   2   7
ATOM      7  O   UNL     1      35.129 -24.954 -13.356  0.00  0.00    -0.379 OA
ATOM      8  H   UNL     1      34.804 -24.138 -12.947  0.00  0.00    +0.211 HD
ENDBRANCH   2   7
BRANCH   3   9
ATOM      9  O   UNL     1      35.247 -25.139 -10.592  0.00  0.00    -0.382 OA
ATOM     10  H   UNL     1      34.465 -24.982 -11.145  0.00  0.00    +0.210 HD
ENDBRANCH   3   9
BRANCH   6  11
ATOM     11  O   UNL     1      38.963 -23.172 -11.628  0.00  0.00    -0.360 OA
ATOM     12  H   UNL     1      39.100 -22.601 -10.855  0.00  0.00    +0.213 HD
ENDBRANCH   6  11
BRANCH   4  13
ATOM     13  C   UNL     1      37.482 -25.304 -15.005  0.00  0.00    +0.169 C 
BRANCH  13  14
ATOM     14  O   UNL     1      38.694 -25.960 -15.330  0.00  0.00    -0.379 OA
ATOM     15  H   UNL     1      38.500 -26.843 -15.681  0.00  0.00    +0.211 HD
ENDBRANCH  13  14
ENDBRANCH   4  13
TORSDOF 5
ENDMDL
