MODEL 1
REMARK VINA RESULT:      -6.1      0.000      0.000
REMARK  Name = 790
REMARK  0 active torsions:
REMARK  status: ('A' for Active; 'I' for Inactive)
REMARK                            x       y       z     vdW  Elec       q    Type
REMARK                         _______ _______ _______ _____ _____    ______ ____
ROOT
ATOM      1  O   UNL     1      36.808 -21.600 -19.054  0.00  0.00    -0.221 OA
ATOM      2  N   UNL     1      34.835 -20.026 -20.702  0.00  0.00    -0.305 N 
ATOM      3  N   UNL     1      32.749 -22.074 -18.876  0.00  0.00    -0.299 N 
ATOM      4  N   UNL     1      32.623 -20.329 -20.562  0.00  0.00    -0.304 N 
ATOM      5  N   UNL     1      34.981 -22.681 -18.139  0.00  0.00    -0.179 NA
ATOM      6  C   UNL     1      34.647 -21.007 -19.771  0.00  0.00    +0.157 C 
ATOM      7  C   UNL     1      33.283 -21.166 -19.713  0.00  0.00    +0.121 C 
ATOM      8  C   UNL     1      35.594 -21.757 -18.986  0.00  0.00    +0.168 C 
ATOM      9  C   UNL     1      33.590 -19.651 -21.148  0.00  0.00    +0.183 C 
ATOM     10  C   UNL     1      33.682 -22.776 -18.137  0.00  0.00    +0.230 C 
ATOM     11  H   UNL     1      35.699 -19.657 -20.998  0.00  0.00    +0.149 HD
ATOM     12  H   UNL     1      31.779 -22.225 -18.799  0.00  0.00    +0.150 HD
ATOM     13  H   UNL     1      31.652 -20.250 -20.704  0.00  0.00    +0.150 HD
ENDROOT
TORSDOF 0
ENDMDL
MODEL 2
REMARK VINA RESULT:      -6.1      6.718      8.278
REMARK  Name = 790
REMARK  0 active torsions:
REMARK  status: ('A' for Active; 'I' for Inactive)
REMARK                            x       y       z     vdW  Elec       q    Type
REMARK                         _______ _______ _______ _____ _____    ______ ____
ROOT
ATOM      1  O   UNL     1      37.050 -26.363 -11.873  0.00  0.00    -0.221 OA
ATOM      2  N   UNL     1      39.554 -26.144 -13.537  0.00  0.00    -0.305 N 
ATOM      3  N   UNL     1      37.324 -24.262 -15.372  0.00  0.00    -0.299 N 
ATOM      4  N   UNL     1      39.644 -24.979 -15.444  0.00  0.00    -0.304 N 
ATOM      5  N   UNL     1      36.033 -25.031 -13.465  0.00  0.00    -0.179 NA
ATOM      6  C   UNL     1      38.306 -25.620 -13.719  0.00  0.00    +0.157 C 
ATOM      7  C   UNL     1      38.399 -24.914 -14.894  0.00  0.00    +0.121 C 
ATOM      8  C   UNL     1      37.111 -25.728 -12.920  0.00  0.00    +0.168 C 
ATOM      9  C   UNL     1      40.322 -25.731 -14.599  0.00  0.00    +0.183 C 
ATOM     10  C   UNL     1      36.195 -24.384 -14.584  0.00  0.00    +0.230 C 
ATOM     11  H   UNL     1      39.848 -26.710 -12.787  0.00  0.00    +0.149 HD
ATOM     12  H   UNL     1      37.340 -23.744 -16.209  0.00  0.00    +0.150 HD
ATOM     13  H   UNL     1      39.963 -24.562 -16.277  0.00  0.00    +0.150 HD
ENDROOT
TORSDOF 0
ENDMDL
MODEL 3
REMARK VINA RESULT:      -6.0      1.588      2.366
REMARK  Name = 790
REMARK  0 active torsions:
REMARK  status: ('A' for Active; 'I' for Inactive)
REMARK                            x       y       z     vdW  Elec       q    Type
REMARK                         _______ _______ _______ _____ _____    ______ ____
ROOT
ATOM      1  O   UNL     1      32.797 -22.822 -18.411  0.00  0.00    -0.221 OA
ATOM      2  N   UNL     1      32.736 -20.583 -20.429  0.00  0.00    -0.305 N 
ATOM      3  N   UNL     1      36.088 -20.722 -19.634  0.00  0.00    -0.299 N 
ATOM      4  N   UNL     1      34.570 -19.469 -21.060  0.00  0.00    -0.304 N 
ATOM      5  N   UNL     1      35.077 -22.463 -18.278  0.00  0.00    -0.179 NA
ATOM      6  C   UNL     1      33.772 -21.133 -19.729  0.00  0.00    +0.157 C 
ATOM      7  C   UNL     1      34.876 -20.427 -20.140  0.00  0.00    +0.121 C 
ATOM      8  C   UNL     1      33.796 -22.204 -18.764  0.00  0.00    +0.168 C 
ATOM      9  C   UNL     1      33.266 -19.588 -21.214  0.00  0.00    +0.183 C 
ATOM     10  C   UNL     1      36.078 -21.752 -18.713  0.00  0.00    +0.230 C 
ATOM     11  H   UNL     1      31.789 -20.849 -20.380  0.00  0.00    +0.149 HD
ATOM     12  H   UNL     1      36.908 -20.244 -19.896  0.00  0.00    +0.150 HD
ATOM     13  H   UNL     1      35.180 -18.837 -21.504  0.00  0.00    +0.150 HD
ENDROOT
TORSDOF 0
ENDMDL
MODEL 4
REMARK VINA RESULT:      -6.0      8.357      8.645
REMARK  Name = 790
REMARK  0 active torsions:
REMARK  status: ('A' for Active; 'I' for Inactive)
REMARK                            x       y       z     vdW  Elec       q    Type
REMARK                         _______ _______ _______ _____ _____    ______ ____
ROOT
ATOM      1  O   UNL     1      40.472 -24.970 -13.797  0.00  0.00    -0.221 OA
ATOM      2  N   UNL     1      38.326 -23.962 -11.935  0.00  0.00    -0.305 N 
ATOM      3  N   UNL     1      36.641 -26.401 -13.693  0.00  0.00    -0.299 N 
ATOM      4  N   UNL     1      36.246 -24.784 -11.923  0.00  0.00    -0.304 N 
ATOM      5  N   UNL     1      38.885 -26.434 -14.621  0.00  0.00    -0.179 NA
ATOM      6  C   UNL     1      38.299 -24.934 -12.893  0.00  0.00    +0.157 C 
ATOM      7  C   UNL     1      37.012 -25.414 -12.858  0.00  0.00    +0.121 C 
ATOM      8  C   UNL     1      39.329 -25.413 -13.782  0.00  0.00    +0.168 C 
ATOM      9  C   UNL     1      37.070 -23.909 -11.381  0.00  0.00    +0.183 C 
ATOM     10  C   UNL     1      37.649 -26.838 -14.531  0.00  0.00    +0.230 C 
ATOM     11  H   UNL     1      39.099 -23.404 -11.688  0.00  0.00    +0.149 HD
ATOM     12  H   UNL     1      35.732 -26.778 -13.706  0.00  0.00    +0.150 HD
ATOM     13  H   UNL     1      35.299 -24.945 -11.705  0.00  0.00    +0.150 HD
ENDROOT
TORSDOF 0
ENDMDL
MODEL 5
REMARK VINA RESULT:      -5.9      8.227      8.545
REMARK  Name = 790
REMARK  0 active torsions:
REMARK  status: ('A' for Active; 'I' for Inactive)
REMARK                            x       y       z     vdW  Elec       q    Type
REMARK                         _______ _______ _______ _____ _____    ______ ____
ROOT
ATOM      1  O   UNL     1      39.112 -23.171 -11.660  0.00  0.00    -0.221 OA
ATOM      2  N   UNL     1      38.694 -25.377 -13.672  0.00  0.00    -0.305 N 
ATOM      3  N   UNL     1      35.530 -25.022 -12.351  0.00  0.00    -0.299 N 
ATOM      4  N   UNL     1      36.709 -26.353 -14.006  0.00  0.00    -0.304 N 
ATOM      5  N   UNL     1      36.863 -23.375 -11.165  0.00  0.00    -0.179 NA
ATOM      6  C   UNL     1      37.824 -24.768 -12.813  0.00  0.00    +0.157 C 
ATOM      7  C   UNL     1      36.621 -25.391 -13.045  0.00  0.00    +0.121 C 
ATOM      8  C   UNL     1      38.029 -23.713 -11.852  0.00  0.00    +0.168 C 
ATOM      9  C   UNL     1      37.977 -26.321 -14.367  0.00  0.00    +0.183 C 
ATOM     10  C   UNL     1      35.759 -24.010 -11.439  0.00  0.00    +0.230 C 
ATOM     11  H   UNL     1      39.653 -25.178 -13.774  0.00  0.00    +0.149 HD
ATOM     12  H   UNL     1      34.647 -25.438 -12.480  0.00  0.00    +0.150 HD
ATOM     13  H   UNL     1      35.993 -26.935 -14.350  0.00  0.00    +0.150 HD
ENDROOT
TORSDOF 0
ENDMDL
MODEL 6
REMARK VINA RESULT:      -5.9      6.175      7.600
REMARK  Name = 790
REMARK  0 active torsions:
REMARK  status: ('A' for Active; 'I' for Inactive)
REMARK                            x       y       z     vdW  Elec       q    Type
REMARK                         _______ _______ _______ _____ _____    ______ ____
ROOT
ATOM      1  O   UNL     1      37.019 -26.517 -11.797  0.00  0.00    -0.221 OA
ATOM      2  N   UNL     1      35.188 -24.929 -13.590  0.00  0.00    -0.305 N 
ATOM      3  N   UNL     1      38.190 -24.696 -15.268  0.00  0.00    -0.299 N 
ATOM      4  N   UNL     1      35.886 -23.955 -15.479  0.00  0.00    -0.304 N 
ATOM      5  N   UNL     1      38.701 -26.036 -13.309  0.00  0.00    -0.179 NA
ATOM      6  C   UNL     1      36.519 -25.219 -13.695  0.00  0.00    +0.157 C 
ATOM      7  C   UNL     1      36.911 -24.606 -14.861  0.00  0.00    +0.121 C 
ATOM      8  C   UNL     1      37.390 -25.978 -12.834  0.00  0.00    +0.168 C 
ATOM      9  C   UNL     1      34.855 -24.169 -14.685  0.00  0.00    +0.183 C 
ATOM     10  C   UNL     1      39.000 -25.430 -14.423  0.00  0.00    +0.230 C 
ATOM     11  H   UNL     1      34.582 -25.212 -12.867  0.00  0.00    +0.149 HD
ATOM     12  H   UNL     1      38.520 -24.275 -16.095  0.00  0.00    +0.150 HD
ATOM     13  H   UNL     1      35.910 -23.444 -16.320  0.00  0.00    +0.150 HD
ENDROOT
TORSDOF 0
ENDMDL
MODEL 7
REMARK VINA RESULT:      -5.9      6.718      7.638
REMARK  Name = 790
REMARK  0 active torsions:
REMARK  status: ('A' for Active; 'I' for Inactive)
REMARK                            x       y       z     vdW  Elec       q    Type
REMARK                         _______ _______ _______ _____ _____    ______ ____
ROOT
ATOM      1  O   UNL     1      36.725 -27.269 -16.068  0.00  0.00    -0.221 OA
ATOM      2  N   UNL     1      35.079 -25.198 -14.621  0.00  0.00    -0.305 N 
ATOM      3  N   UNL     1      38.154 -24.838 -13.104  0.00  0.00    -0.299 N 
ATOM      4  N   UNL     1      35.916 -23.896 -13.007  0.00  0.00    -0.304 N 
ATOM      5  N   UNL     1      38.494 -26.602 -14.737  0.00  0.00    -0.179 NA
ATOM      6  C   UNL     1      36.390 -25.559 -14.487  0.00  0.00    +0.157 C 
ATOM      7  C   UNL     1      36.869 -24.741 -13.491  0.00  0.00    +0.121 C 
ATOM      8  C   UNL     1      37.173 -26.550 -15.181  0.00  0.00    +0.168 C 
ATOM      9  C   UNL     1      34.843 -24.197 -13.711  0.00  0.00    +0.183 C 
ATOM     10  C   UNL     1      38.877 -25.796 -13.788  0.00  0.00    +0.230 C 
ATOM     11  H   UNL     1      34.428 -25.584 -15.251  0.00  0.00    +0.149 HD
ATOM     12  H   UNL     1      38.543 -24.276 -12.396  0.00  0.00    +0.150 HD
ATOM     13  H   UNL     1      36.008 -23.219 -12.298  0.00  0.00    +0.150 HD
ENDROOT
TORSDOF 0
ENDMDL
MODEL 8
REMARK VINA RESULT:      -5.8      6.374      7.737
REMARK  Name = 790
REMARK  0 active torsions:
REMARK  status: ('A' for Active; 'I' for Inactive)
REMARK                            x       y       z     vdW  Elec       q    Type
REMARK                         _______ _______ _______ _____ _____    ______ ____
ROOT
ATOM      1  O   UNL     1      37.209 -22.443 -11.450  0.00  0.00    -0.221 OA
ATOM      2  N   UNL     1      35.246 -23.099 -13.643  0.00  0.00    -0.305 N 
ATOM      3  N   UNL     1      36.848 -26.120 -13.206  0.00  0.00    -0.299 N 
ATOM      4  N   UNL     1      35.094 -25.131 -14.566  0.00  0.00    -0.304 N 
ATOM      5  N   UNL     1      37.905 -24.642 -11.595  0.00  0.00    -0.179 NA
ATOM      6  C   UNL     1      36.180 -23.871 -13.012  0.00  0.00    +0.157 C 
ATOM      7  C   UNL     1      36.058 -25.106 -13.603  0.00  0.00    +0.121 C 
ATOM      8  C   UNL     1      37.116 -23.553 -11.964  0.00  0.00    +0.168 C 
ATOM      9  C   UNL     1      34.621 -23.900 -14.567  0.00  0.00    +0.183 C 
ATOM     10  C   UNL     1      37.734 -25.784 -12.200  0.00  0.00    +0.230 C 
ATOM     11  H   UNL     1      35.058 -22.149 -13.468  0.00  0.00    +0.149 HD
ATOM     12  H   UNL     1      36.799 -27.022 -13.598  0.00  0.00    +0.150 HD
ATOM     13  H   UNL     1      34.817 -25.890 -15.129  0.00  0.00    +0.150 HD
ENDROOT
TORSDOF 0
ENDMDL
MODEL 9
REMARK VINA RESULT:      -5.8      2.110      2.885
REMARK  Name = 790
REMARK  0 active torsions:
REMARK  status: ('A' for Active; 'I' for Inactive)
REMARK                            x       y       z     vdW  Elec       q    Type
REMARK                         _______ _______ _______ _____ _____    ______ ____
ROOT
ATOM      1  O   UNL     1      32.258 -20.122 -20.826  0.00  0.00    -0.221 OA
ATOM      2  N   UNL     1      35.112 -19.157 -20.956  0.00  0.00    -0.305 N 
ATOM      3  N   UNL     1      35.429 -22.039 -19.093  0.00  0.00    -0.299 N 
ATOM      4  N   UNL     1      36.806 -20.249 -19.987  0.00  0.00    -0.304 N 
ATOM      5  N   UNL     1      33.054 -21.898 -19.580  0.00  0.00    -0.179 NA
ATOM      6  C   UNL     1      34.561 -20.254 -20.359  0.00  0.00    +0.157 C 
ATOM      7  C   UNL     1      35.627 -20.898 -19.777  0.00  0.00    +0.121 C 
ATOM      8  C   UNL     1      33.195 -20.712 -20.300  0.00  0.00    +0.168 C 
ATOM      9  C   UNL     1      36.462 -19.197 -20.705  0.00  0.00    +0.183 C 
ATOM     10  C   UNL     1      34.111 -22.452 -19.054  0.00  0.00    +0.230 C 
ATOM     11  H   UNL     1      34.632 -18.467 -21.469  0.00  0.00    +0.149 HD
ATOM     12  H   UNL     1      36.159 -22.536 -18.658  0.00  0.00    +0.150 HD
ATOM     13  H   UNL     1      37.705 -20.505 -19.676  0.00  0.00    +0.150 HD
ENDROOT
TORSDOF 0
ENDMDL
