MODEL 1
REMARK VINA RESULT:     -10.7      0.000      0.000
REMARK  Name = 4829
REMARK  7 active torsions:
REMARK  status: ('A' for Active; 'I' for Inactive)
REMARK    1  A    between atoms: C_1  and  C_18
REMARK    2  A    between atoms: C_4  and  O_7
REMARK    3  A    between atoms: O_7  and  C_8
REMARK    4  A    between atoms: C_8  and  C_9
REMARK    5  A    between atoms: C_9  and  C_11
REMARK    6  A    between atoms: C_12  and  C_16
REMARK    7  A    between atoms: C_18  and  C_23
REMARK                            x       y       z     vdW  Elec       q    Type
REMARK                         _______ _______ _______ _____ _____    ______ ____
ROOT
ATOM      1  C   UNL     1      34.969 -18.427 -22.065  0.00  0.00    -0.021 C 
ATOM      2  C   UNL     1      34.891 -18.044 -23.395  0.00  0.00    -0.001 C 
ATOM      3  C   UNL     1      34.951 -17.487 -21.045  0.00  0.00    -0.001 C 
ATOM      4  C   UNL     1      34.774 -15.734 -22.699  0.00  0.00    +0.139 C 
ATOM      5  C   UNL     1      34.793 -16.689 -23.714  0.00  0.00    +0.037 C 
ATOM      6  C   UNL     1      34.853 -16.133 -21.364  0.00  0.00    +0.037 C 
ENDROOT
BRANCH   4   7
ATOM      7  O   UNL     1      34.680 -14.411 -23.008  0.00  0.00    -0.475 OA
BRANCH   7   8
ATOM      8  C   UNL     1      33.384 -13.912 -23.332  0.00  0.00    +0.212 C 
BRANCH   8   9
ATOM      9  C   UNL     1      33.454 -13.090 -24.615  0.00  0.00    +0.093 C 
BRANCH   9  11
ATOM     10  N   UNL     1      32.986 -11.036 -23.422  0.00  0.00    -0.248 NA
ATOM     11  C   UNL     1      33.754 -11.635 -24.349  0.00  0.00    +0.063 C 
ATOM     12  C   UNL     1      34.253  -9.020 -23.835  0.00  0.00    -0.003 C 
ATOM     13  C   UNL     1      34.770 -11.027 -25.054  0.00  0.00    +0.015 C 
ATOM     14  C   UNL     1      35.019  -9.686 -24.785  0.00  0.00    -0.002 C 
ATOM     15  C   UNL     1      33.257  -9.733 -23.187  0.00  0.00    +0.094 C 
BRANCH  12  16
ATOM     16  C   UNL     1      34.496  -7.585 -23.523  0.00  0.00    +0.028 C 
ATOM     17  C   UNL     1      34.550  -6.715 -24.778  0.00  0.00    +0.005 C 
ENDBRANCH  12  16
ENDBRANCH   9  11
ENDBRANCH   8   9
ENDBRANCH   7   8
ENDBRANCH   4   7
BRANCH   1  18
ATOM     18  C   UNL     1      35.073 -19.890 -21.720  0.00  0.00    +0.047 C 
BRANCH  18  23
ATOM     19  S   UNL     1      35.416 -21.606 -19.593  0.00  0.00    -0.048 S 
ATOM     20  O   UNL     1      32.211 -19.842 -20.819  0.00  0.00    -0.274 OA
ATOM     21  O   UNL     1      33.926 -23.614 -18.780  0.00  0.00    -0.263 OA
ATOM     22  N   UNL     1      32.876 -21.794 -19.773  0.00  0.00    -0.246 N 
ATOM     23  C   UNL     1      34.552 -20.183 -20.324  0.00  0.00    +0.137 C 
ATOM     24  C   UNL     1      33.087 -20.558 -20.348  0.00  0.00    +0.239 C 
ATOM     25  C   UNL     1      33.945 -22.513 -19.309  0.00  0.00    +0.279 C 
ATOM     26  H   UNL     1      31.964 -22.157 -19.697  0.00  0.00    +0.158 HD
ENDBRANCH  18  23
ENDBRANCH   1  18
TORSDOF 7
ENDMDL
MODEL 2
REMARK VINA RESULT:     -10.7      4.787     11.624
REMARK  Name = 4829
REMARK  7 active torsions:
REMARK  status: ('A' for Active; 'I' for Inactive)
REMARK    1  A    between atoms: C_1  and  C_18
REMARK    2  A    between atoms: C_4  and  O_7
REMARK    3  A    between atoms: O_7  and  C_8
REMARK    4  A    between atoms: C_8  and  C_9
REMARK    5  A    between atoms: C_9  and  C_11
REMARK    6  A    between atoms: C_12  and  C_16
REMARK    7  A    between atoms: C_18  and  C_23
REMARK                            x       y       z     vdW  Elec       q    Type
REMARK                         _______ _______ _______ _____ _____    ______ ____
ROOT
ATOM      1  C   UNL     1      34.746 -19.939 -20.868  0.00  0.00    -0.021 C 
ATOM      2  C   UNL     1      33.370 -19.832 -20.734  0.00  0.00    -0.001 C 
ATOM      3  C   UNL     1      35.464 -20.894 -20.164  0.00  0.00    -0.001 C 
ATOM      4  C   UNL     1      33.405 -21.663 -19.159  0.00  0.00    +0.139 C 
ATOM      5  C   UNL     1      32.696 -20.699 -19.874  0.00  0.00    +0.037 C 
ATOM      6  C   UNL     1      34.789 -21.761 -19.304  0.00  0.00    +0.037 C 
ENDROOT
BRANCH   4   7
ATOM      7  O   UNL     1      32.748 -22.509 -18.319  0.00  0.00    -0.475 OA
BRANCH   7   8
ATOM      8  C   UNL     1      33.516 -23.549 -17.716  0.00  0.00    +0.212 C 
BRANCH   8   9
ATOM      9  C   UNL     1      33.817 -23.192 -16.264  0.00  0.00    +0.093 C 
BRANCH   9  11
ATOM     10  N   UNL     1      35.296 -24.924 -15.442  0.00  0.00    -0.248 NA
ATOM     11  C   UNL     1      35.193 -23.643 -15.836  0.00  0.00    +0.063 C 
ATOM     12  C   UNL     1      37.644 -24.500 -15.056  0.00  0.00    -0.003 C 
ATOM     13  C   UNL     1      36.229 -22.736 -15.874  0.00  0.00    +0.015 C 
ATOM     14  C   UNL     1      37.483 -23.183 -15.473  0.00  0.00    -0.002 C 
ATOM     15  C   UNL     1      36.529 -25.323 -15.059  0.00  0.00    +0.094 C 
BRANCH  12  16
ATOM     16  C   UNL     1      38.973 -25.009 -14.622  0.00  0.00    +0.028 C 
ATOM     17  C   UNL     1      39.021 -25.317 -13.125  0.00  0.00    +0.005 C 
ENDBRANCH  12  16
ENDBRANCH   9  11
ENDBRANCH   8   9
ENDBRANCH   7   8
ENDBRANCH   4   7
BRANCH   1  18
ATOM     18  C   UNL     1      35.475 -19.004 -21.798  0.00  0.00    +0.047 C 
BRANCH  18  23
ATOM     19  S   UNL     1      34.526 -18.522 -24.338  0.00  0.00    -0.048 S 
ATOM     20  O   UNL     1      35.072 -16.053 -21.423  0.00  0.00    -0.274 OA
ATOM     21  O   UNL     1      35.083 -16.573 -26.012  0.00  0.00    -0.263 OA
ATOM     22  N   UNL     1      35.116 -16.111 -23.735  0.00  0.00    -0.246 N 
ATOM     23  C   UNL     1      34.519 -18.109 -22.567  0.00  0.00    +0.137 C 
ATOM     24  C   UNL     1      34.930 -16.657 -22.481  0.00  0.00    +0.239 C 
ATOM     25  C   UNL     1      34.954 -16.901 -24.843  0.00  0.00    +0.279 C 
ATOM     26  H   UNL     1      35.362 -15.164 -23.833  0.00  0.00    +0.158 HD
ENDBRANCH  18  23
ENDBRANCH   1  18
TORSDOF 7
ENDMDL
MODEL 3
REMARK VINA RESULT:     -10.5      4.702     11.032
REMARK  Name = 4829
REMARK  7 active torsions:
REMARK  status: ('A' for Active; 'I' for Inactive)
REMARK    1  A    between atoms: C_1  and  C_18
REMARK    2  A    between atoms: C_4  and  O_7
REMARK    3  A    between atoms: O_7  and  C_8
REMARK    4  A    between atoms: C_8  and  C_9
REMARK    5  A    between atoms: C_9  and  C_11
REMARK    6  A    between atoms: C_12  and  C_16
REMARK    7  A    between atoms: C_18  and  C_23
REMARK                            x       y       z     vdW  Elec       q    Type
REMARK                         _______ _______ _______ _____ _____    ______ ____
ROOT
ATOM      1  C   UNL     1      35.680 -19.794 -20.722  0.00  0.00    -0.021 C 
ATOM      2  C   UNL     1      36.687 -20.428 -20.009  0.00  0.00    -0.001 C 
ATOM      3  C   UNL     1      34.355 -20.185 -20.595  0.00  0.00    -0.001 C 
ATOM      4  C   UNL     1      35.034 -21.880 -19.012  0.00  0.00    +0.139 C 
ATOM      5  C   UNL     1      36.361 -21.477 -19.149  0.00  0.00    +0.037 C 
ATOM      6  C   UNL     1      34.031 -21.234 -19.735  0.00  0.00    +0.037 C 
ENDROOT
BRANCH   4   7
ATOM      7  O   UNL     1      34.716 -22.905 -18.174  0.00  0.00    -0.475 OA
BRANCH   7   8
ATOM      8  C   UNL     1      34.943 -22.698 -16.782  0.00  0.00    +0.212 C 
BRANCH   8   9
ATOM      9  C   UNL     1      34.211 -23.766 -15.976  0.00  0.00    +0.093 C 
BRANCH   9  11
ATOM     10  N   UNL     1      32.030 -23.148 -16.825  0.00  0.00    -0.248 NA
ATOM     11  C   UNL     1      32.765 -23.409 -15.730  0.00  0.00    +0.063 C 
ATOM     12  C   UNL     1      30.161 -22.761 -15.342  0.00  0.00    -0.003 C 
ATOM     13  C   UNL     1      32.302 -23.374 -14.434  0.00  0.00    +0.015 C 
ATOM     14  C   UNL     1      30.965 -23.041 -14.243  0.00  0.00    -0.002 C 
ATOM     15  C   UNL     1      30.736 -22.828 -16.601  0.00  0.00    +0.094 C 
BRANCH  12  16
ATOM     16  C   UNL     1      28.727 -22.404 -15.172  0.00  0.00    +0.028 C 
ATOM     17  C   UNL     1      27.869 -22.847 -16.357  0.00  0.00    +0.005 C 
ENDBRANCH  12  16
ENDBRANCH   9  11
ENDBRANCH   8   9
ENDBRANCH   7   8
ENDBRANCH   4   7
BRANCH   1  18
ATOM     18  C   UNL     1      36.030 -18.659 -21.650  0.00  0.00    +0.047 C 
BRANCH  18  23
ATOM     19  S   UNL     1      34.796 -18.629 -24.112  0.00  0.00    -0.048 S 
ATOM     20  O   UNL     1      34.850 -15.914 -21.370  0.00  0.00    -0.274 OA
ATOM     21  O   UNL     1      34.660 -16.719 -25.914  0.00  0.00    -0.263 OA
ATOM     22  N   UNL     1      34.734 -16.114 -23.671  0.00  0.00    -0.246 N 
ATOM     23  C   UNL     1      34.807 -18.115 -22.367  0.00  0.00    +0.137 C 
ATOM     24  C   UNL     1      34.802 -16.604 -22.383  0.00  0.00    +0.239 C 
ATOM     25  C   UNL     1      34.716 -16.990 -24.724  0.00  0.00    +0.279 C 
ATOM     26  H   UNL     1      34.698 -15.144 -23.832  0.00  0.00    +0.158 HD
ENDBRANCH  18  23
ENDBRANCH   1  18
TORSDOF 7
ENDMDL
MODEL 4
REMARK VINA RESULT:     -10.5      4.543     12.066
REMARK  Name = 4829
REMARK  7 active torsions:
REMARK  status: ('A' for Active; 'I' for Inactive)
REMARK    1  A    between atoms: C_1  and  C_18
REMARK    2  A    between atoms: C_4  and  O_7
REMARK    3  A    between atoms: O_7  and  C_8
REMARK    4  A    between atoms: C_8  and  C_9
REMARK    5  A    between atoms: C_9  and  C_11
REMARK    6  A    between atoms: C_12  and  C_16
REMARK    7  A    between atoms: C_18  and  C_23
REMARK                            x       y       z     vdW  Elec       q    Type
REMARK                         _______ _______ _______ _____ _____    ______ ____
ROOT
ATOM      1  C   UNL     1      34.146 -20.320 -20.610  0.00  0.00    -0.021 C 
ATOM      2  C   UNL     1      33.118 -20.974 -19.948  0.00  0.00    -0.001 C 
ATOM      3  C   UNL     1      35.473 -20.538 -20.270  0.00  0.00    -0.001 C 
ATOM      4  C   UNL     1      34.753 -22.096 -18.568  0.00  0.00    +0.139 C 
ATOM      5  C   UNL     1      33.424 -21.867 -18.921  0.00  0.00    +0.037 C 
ATOM      6  C   UNL     1      35.778 -21.432 -19.243  0.00  0.00    +0.037 C 
ENDROOT
BRANCH   4   7
ATOM      7  O   UNL     1      35.052 -22.967 -17.565  0.00  0.00    -0.475 OA
BRANCH   7   8
ATOM      8  C   UNL     1      33.955 -23.577 -16.888  0.00  0.00    +0.212 C 
BRANCH   8   9
ATOM      9  C   UNL     1      34.154 -23.469 -15.381  0.00  0.00    +0.093 C 
BRANCH   9  11
ATOM     10  N   UNL     1      35.798 -25.247 -15.405  0.00  0.00    -0.248 NA
ATOM     11  C   UNL     1      35.486 -24.026 -14.937  0.00  0.00    +0.063 C 
ATOM     12  C   UNL     1      37.866 -25.070 -14.166  0.00  0.00    -0.003 C 
ATOM     13  C   UNL     1      36.276 -23.268 -14.101  0.00  0.00    +0.015 C 
ATOM     14  C   UNL     1      37.495 -23.810 -13.710  0.00  0.00    -0.002 C 
ATOM     15  C   UNL     1      36.990 -25.742 -15.004  0.00  0.00    +0.094 C 
BRANCH  12  16
ATOM     16  C   UNL     1      39.165 -25.678 -13.768  0.00  0.00    +0.028 C 
ATOM     17  C   UNL     1      40.250 -25.483 -14.826  0.00  0.00    +0.005 C 
ENDBRANCH  12  16
ENDBRANCH   9  11
ENDBRANCH   8   9
ENDBRANCH   7   8
ENDBRANCH   4   7
BRANCH   1  18
ATOM     18  C   UNL     1      33.817 -19.356 -21.721  0.00  0.00    +0.047 C 
BRANCH  18  23
ATOM     19  S   UNL     1      34.814 -16.801 -21.469  0.00  0.00    -0.048 S 
ATOM     20  O   UNL     1      35.254 -19.323 -24.356  0.00  0.00    -0.274 OA
ATOM     21  O   UNL     1      34.949 -14.855 -23.231  0.00  0.00    -0.263 OA
ATOM     22  N   UNL     1      35.138 -17.042 -23.990  0.00  0.00    -0.246 N 
ATOM     23  C   UNL     1      35.011 -18.496 -22.098  0.00  0.00    +0.137 C 
ATOM     24  C   UNL     1      35.147 -18.365 -23.598  0.00  0.00    +0.239 C 
ATOM     25  C   UNL     1      34.980 -16.062 -23.047  0.00  0.00    +0.279 C 
ATOM     26  H   UNL     1      35.243 -16.806 -24.940  0.00  0.00    +0.158 HD
ENDBRANCH  18  23
ENDBRANCH   1  18
TORSDOF 7
ENDMDL
MODEL 5
REMARK VINA RESULT:     -10.3      1.409      1.999
REMARK  Name = 4829
REMARK  7 active torsions:
REMARK  status: ('A' for Active; 'I' for Inactive)
REMARK    1  A    between atoms: C_1  and  C_18
REMARK    2  A    between atoms: C_4  and  O_7
REMARK    3  A    between atoms: O_7  and  C_8
REMARK    4  A    between atoms: C_8  and  C_9
REMARK    5  A    between atoms: C_9  and  C_11
REMARK    6  A    between atoms: C_12  and  C_16
REMARK    7  A    between atoms: C_18  and  C_23
REMARK                            x       y       z     vdW  Elec       q    Type
REMARK                         _______ _______ _______ _____ _____    ______ ____
ROOT
ATOM      1  C   UNL     1      34.972 -18.490 -22.102  0.00  0.00    -0.021 C 
ATOM      2  C   UNL     1      34.877 -18.167 -23.447  0.00  0.00    -0.001 C 
ATOM      3  C   UNL     1      34.941 -17.507 -21.123  0.00  0.00    -0.001 C 
ATOM      4  C   UNL     1      34.715 -15.832 -22.850  0.00  0.00    +0.139 C 
ATOM      5  C   UNL     1      34.748 -16.830 -23.823  0.00  0.00    +0.037 C 
ATOM      6  C   UNL     1      34.811 -16.170 -21.500  0.00  0.00    +0.037 C 
ENDROOT
BRANCH   4   7
ATOM      7  O   UNL     1      34.590 -14.527 -23.217  0.00  0.00    -0.475 OA
BRANCH   7   8
ATOM      8  C   UNL     1      33.340 -14.127 -23.776  0.00  0.00    +0.212 C 
BRANCH   8   9
ATOM      9  C   UNL     1      32.376 -13.741 -22.660  0.00  0.00    +0.093 C 
BRANCH   9  11
ATOM     10  N   UNL     1      32.935 -11.499 -23.383  0.00  0.00    -0.248 NA
ATOM     11  C   UNL     1      32.280 -12.245 -22.476  0.00  0.00    +0.063 C 
ATOM     12  C   UNL     1      32.140  -9.553 -22.189  0.00  0.00    -0.003 C 
ATOM     13  C   UNL     1      31.547 -11.753 -21.419  0.00  0.00    +0.015 C 
ATOM     14  C   UNL     1      31.480 -10.371 -21.279  0.00  0.00    -0.002 C 
ATOM     15  C   UNL     1      32.848 -10.160 -23.214  0.00  0.00    +0.094 C 
BRANCH  12  16
ATOM     16  C   UNL     1      32.086  -8.071 -22.068  0.00  0.00    +0.028 C 
ATOM     17  C   UNL     1      32.433  -7.587 -20.660  0.00  0.00    +0.005 C 
ENDBRANCH  12  16
ENDBRANCH   9  11
ENDBRANCH   8   9
ENDBRANCH   7   8
ENDBRANCH   4   7
BRANCH   1  18
ATOM     18  C   UNL     1      35.111 -19.934 -21.694  0.00  0.00    +0.047 C 
BRANCH  18  23
ATOM     19  S   UNL     1      35.505 -21.504 -19.466  0.00  0.00    -0.048 S 
ATOM     20  O   UNL     1      32.227 -20.029 -20.868  0.00  0.00    -0.274 OA
ATOM     21  O   UNL     1      34.128 -23.560 -18.577  0.00  0.00    -0.263 OA
ATOM     22  N   UNL     1      32.989 -21.872 -19.697  0.00  0.00    -0.246 N 
ATOM     23  C   UNL     1      34.570 -20.184 -20.297  0.00  0.00    +0.137 C 
ATOM     24  C   UNL     1      33.135 -20.658 -20.336  0.00  0.00    +0.239 C 
ATOM     25  C   UNL     1      34.090 -22.491 -19.167  0.00  0.00    +0.279 C 
ATOM     26  H   UNL     1      32.101 -22.290 -19.624  0.00  0.00    +0.158 HD
ENDBRANCH  18  23
ENDBRANCH   1  18
TORSDOF 7
ENDMDL
MODEL 6
REMARK VINA RESULT:     -10.2      3.700      5.754
REMARK  Name = 4829
REMARK  7 active torsions:
REMARK  status: ('A' for Active; 'I' for Inactive)
REMARK    1  A    between atoms: C_1  and  C_18
REMARK    2  A    between atoms: C_4  and  O_7
REMARK    3  A    between atoms: O_7  and  C_8
REMARK    4  A    between atoms: C_8  and  C_9
REMARK    5  A    between atoms: C_9  and  C_11
REMARK    6  A    between atoms: C_12  and  C_16
REMARK    7  A    between atoms: C_18  and  C_23
REMARK                            x       y       z     vdW  Elec       q    Type
REMARK                         _______ _______ _______ _____ _____    ______ ____
ROOT
ATOM      1  C   UNL     1      33.968 -22.417 -18.600  0.00  0.00    -0.021 C 
ATOM      2  C   UNL     1      35.332 -22.184 -18.698  0.00  0.00    -0.001 C 
ATOM      3  C   UNL     1      33.056 -21.658 -19.319  0.00  0.00    -0.001 C 
ATOM      4  C   UNL     1      34.890 -20.399 -20.265  0.00  0.00    +0.139 C 
ATOM      5  C   UNL     1      35.795 -21.169 -19.535  0.00  0.00    +0.037 C 
ATOM      6  C   UNL     1      33.521 -20.644 -20.157  0.00  0.00    +0.037 C 
ENDROOT
BRANCH   4   7
ATOM      7  O   UNL     1      35.341 -19.408 -21.081  0.00  0.00    -0.475 OA
BRANCH   7   8
ATOM      8  C   UNL     1      34.650 -19.219 -22.314  0.00  0.00    +0.212 C 
BRANCH   8   9
ATOM      9  C   UNL     1      35.540 -18.460 -23.293  0.00  0.00    +0.093 C 
BRANCH   9  11
ATOM     10  N   UNL     1      34.486 -17.185 -25.061  0.00  0.00    -0.248 NA
ATOM     11  C   UNL     1      34.897 -17.184 -23.781  0.00  0.00    +0.063 C 
ATOM     12  C   UNL     1      33.739 -14.914 -24.706  0.00  0.00    -0.003 C 
ATOM     13  C   UNL     1      34.777 -16.126 -22.907  0.00  0.00    +0.015 C 
ATOM     14  C   UNL     1      34.182 -14.966 -23.390  0.00  0.00    -0.002 C 
ATOM     15  C   UNL     1      33.913 -16.040 -25.495  0.00  0.00    +0.094 C 
BRANCH  12  16
ATOM     16  C   UNL     1      33.096 -13.688 -25.252  0.00  0.00    +0.028 C 
ATOM     17  C   UNL     1      32.966 -13.724 -26.774  0.00  0.00    +0.005 C 
ENDBRANCH  12  16
ENDBRANCH   9  11
ENDBRANCH   8   9
ENDBRANCH   7   8
ENDBRANCH   4   7
BRANCH   1  18
ATOM     18  C   UNL     1      33.466 -23.513 -17.696  0.00  0.00    +0.047 C 
BRANCH  18  23
ATOM     19  S   UNL     1      33.735 -23.897 -14.982  0.00  0.00    -0.048 S 
ATOM     20  O   UNL     1      30.674 -22.672 -16.987  0.00  0.00    -0.274 OA
ATOM     21  O   UNL     1      32.087 -24.999 -13.256  0.00  0.00    -0.263 OA
ATOM     22  N   UNL     1      31.183 -23.856 -15.066  0.00  0.00    -0.246 N 
ATOM     23  C   UNL     1      32.989 -22.974 -16.359  0.00  0.00    +0.137 C 
ATOM     24  C   UNL     1      31.494 -23.134 -16.201  0.00  0.00    +0.239 C 
ATOM     25  C   UNL     1      32.194 -24.346 -14.282  0.00  0.00    +0.279 C 
ATOM     26  H   UNL     1      30.244 -24.017 -14.822  0.00  0.00    +0.158 HD
ENDBRANCH  18  23
ENDBRANCH   1  18
TORSDOF 7
ENDMDL
MODEL 7
REMARK VINA RESULT:     -10.2      4.612     11.623
REMARK  Name = 4829
REMARK  7 active torsions:
REMARK  status: ('A' for Active; 'I' for Inactive)
REMARK    1  A    between atoms: C_1  and  C_18
REMARK    2  A    between atoms: C_4  and  O_7
REMARK    3  A    between atoms: O_7  and  C_8
REMARK    4  A    between atoms: C_8  and  C_9
REMARK    5  A    between atoms: C_9  and  C_11
REMARK    6  A    between atoms: C_12  and  C_16
REMARK    7  A    between atoms: C_18  and  C_23
REMARK                            x       y       z     vdW  Elec       q    Type
REMARK                         _______ _______ _______ _____ _____    ______ ____
ROOT
ATOM      1  C   UNL     1      34.479 -20.350 -20.553  0.00  0.00    -0.021 C 
ATOM      2  C   UNL     1      35.830 -20.425 -20.253  0.00  0.00    -0.001 C 
ATOM      3  C   UNL     1      33.544 -21.096 -19.851  0.00  0.00    -0.001 C 
ATOM      4  C   UNL     1      35.331 -22.022 -18.511  0.00  0.00    +0.139 C 
ATOM      5  C   UNL     1      36.258 -21.266 -19.226  0.00  0.00    +0.037 C 
ATOM      6  C   UNL     1      33.974 -21.937 -18.823  0.00  0.00    +0.037 C 
ENDROOT
BRANCH   4   7
ATOM      7  O   UNL     1      35.747 -22.844 -17.509  0.00  0.00    -0.475 OA
BRANCH   7   8
ATOM      8  C   UNL     1      35.367 -22.491 -16.181  0.00  0.00    +0.212 C 
BRANCH   8   9
ATOM      9  C   UNL     1      35.054 -23.752 -15.382  0.00  0.00    +0.093 C 
BRANCH   9  11
ATOM     10  N   UNL     1      33.211 -24.659 -14.100  0.00  0.00    -0.248 NA
ATOM     11  C   UNL     1      33.571 -23.955 -15.188  0.00  0.00    +0.063 C 
ATOM     12  C   UNL     1      30.917 -24.349 -14.795  0.00  0.00    -0.003 C 
ATOM     13  C   UNL     1      32.701 -23.420 -16.113  0.00  0.00    +0.015 C 
ATOM     14  C   UNL     1      31.342 -23.627 -15.904  0.00  0.00    -0.002 C 
ATOM     15  C   UNL     1      31.883 -24.840 -13.930  0.00  0.00    +0.094 C 
BRANCH  12  16
ATOM     16  C   UNL     1      29.470 -24.585 -14.542  0.00  0.00    +0.028 C 
ATOM     17  C   UNL     1      28.584 -24.026 -15.654  0.00  0.00    +0.005 C 
ENDBRANCH  12  16
ENDBRANCH   9  11
ENDBRANCH   8   9
ENDBRANCH   7   8
ENDBRANCH   4   7
BRANCH   1  18
ATOM     18  C   UNL     1      34.015 -19.440 -21.662  0.00  0.00    +0.047 C 
BRANCH  18  23
ATOM     19  S   UNL     1      35.043 -16.886 -21.614  0.00  0.00    -0.048 S 
ATOM     20  O   UNL     1      35.091 -19.486 -24.464  0.00  0.00    -0.274 OA
ATOM     21  O   UNL     1      34.948 -14.987 -23.430  0.00  0.00    -0.263 OA
ATOM     22  N   UNL     1      35.029 -17.196 -24.149  0.00  0.00    -0.246 N 
ATOM     23  C   UNL     1      35.150 -18.598 -22.217  0.00  0.00    +0.137 C 
ATOM     24  C   UNL     1      35.087 -18.508 -23.725  0.00  0.00    +0.239 C 
ATOM     25  C   UNL     1      35.000 -16.189 -23.220  0.00  0.00    +0.279 C 
ATOM     26  H   UNL     1      35.008 -16.985 -25.110  0.00  0.00    +0.158 HD
ENDBRANCH  18  23
ENDBRANCH   1  18
TORSDOF 7
ENDMDL
MODEL 8
REMARK VINA RESULT:     -10.1      1.626      1.978
REMARK  Name = 4829
REMARK  7 active torsions:
REMARK  status: ('A' for Active; 'I' for Inactive)
REMARK    1  A    between atoms: C_1  and  C_18
REMARK    2  A    between atoms: C_4  and  O_7
REMARK    3  A    between atoms: O_7  and  C_8
REMARK    4  A    between atoms: C_8  and  C_9
REMARK    5  A    between atoms: C_9  and  C_11
REMARK    6  A    between atoms: C_12  and  C_16
REMARK    7  A    between atoms: C_18  and  C_23
REMARK                            x       y       z     vdW  Elec       q    Type
REMARK                         _______ _______ _______ _____ _____    ______ ____
ROOT
ATOM      1  C   UNL     1      35.273 -17.529 -21.652  0.00  0.00    -0.021 C 
ATOM      2  C   UNL     1      35.278 -17.761 -23.019  0.00  0.00    -0.001 C 
ATOM      3  C   UNL     1      34.815 -16.329 -21.128  0.00  0.00    -0.001 C 
ATOM      4  C   UNL     1      34.351 -15.558 -23.372  0.00  0.00    +0.139 C 
ATOM      5  C   UNL     1      34.814 -16.769 -23.884  0.00  0.00    +0.037 C 
ATOM      6  C   UNL     1      34.351 -15.338 -21.994  0.00  0.00    +0.037 C 
ENDROOT
BRANCH   4   7
ATOM      7  O   UNL     1      33.900 -14.589 -24.215  0.00  0.00    -0.475 OA
BRANCH   7   8
ATOM      8  C   UNL     1      33.542 -13.338 -23.631  0.00  0.00    +0.212 C 
BRANCH   8   9
ATOM      9  C   UNL     1      33.858 -12.206 -24.603  0.00  0.00    +0.093 C 
BRANCH   9  11
ATOM     10  N   UNL     1      32.611 -10.722 -23.153  0.00  0.00    -0.248 NA
ATOM     11  C   UNL     1      33.663 -10.844 -23.982  0.00  0.00    +0.063 C 
ATOM     12  C   UNL     1      33.267  -8.416 -22.842  0.00  0.00    -0.003 C 
ATOM     13  C   UNL     1      34.551  -9.839 -24.295  0.00  0.00    +0.015 C 
ATOM     14  C   UNL     1      34.341  -8.597 -23.706  0.00  0.00    -0.002 C 
ATOM     15  C   UNL     1      32.438  -9.501 -22.600  0.00  0.00    +0.094 C 
BRANCH  12  16
ATOM     16  C   UNL     1      33.016  -7.100 -22.194  0.00  0.00    +0.028 C 
ATOM     17  C   UNL     1      32.413  -7.242 -20.797  0.00  0.00    +0.005 C 
ENDBRANCH  12  16
ENDBRANCH   9  11
ENDBRANCH   8   9
ENDBRANCH   7   8
ENDBRANCH   4   7
BRANCH   1  18
ATOM     18  C   UNL     1      35.772 -18.601 -20.717  0.00  0.00    +0.047 C 
BRANCH  18  23
ATOM     19  S   UNL     1      33.399 -19.994 -20.623  0.00  0.00    -0.048 S 
ATOM     20  O   UNL     1      37.011 -21.287 -20.208  0.00  0.00    -0.274 OA
ATOM     21  O   UNL     1      32.602 -21.871 -18.963  0.00  0.00    -0.263 OA
ATOM     22  N   UNL     1      34.864 -21.745 -19.479  0.00  0.00    -0.246 N 
ATOM     23  C   UNL     1      35.169 -19.958 -21.035  0.00  0.00    +0.137 C 
ATOM     24  C   UNL     1      35.807 -21.053 -20.212  0.00  0.00    +0.239 C 
ATOM     25  C   UNL     1      33.549 -21.367 -19.546  0.00  0.00    +0.279 C 
ATOM     26  H   UNL     1      35.134 -22.505 -18.914  0.00  0.00    +0.158 HD
ENDBRANCH  18  23
ENDBRANCH   1  18
TORSDOF 7
ENDMDL
MODEL 9
REMARK VINA RESULT:     -10.1      3.385     10.340
REMARK  Name = 4829
REMARK  7 active torsions:
REMARK  status: ('A' for Active; 'I' for Inactive)
REMARK    1  A    between atoms: C_1  and  C_18
REMARK    2  A    between atoms: C_4  and  O_7
REMARK    3  A    between atoms: O_7  and  C_8
REMARK    4  A    between atoms: C_8  and  C_9
REMARK    5  A    between atoms: C_9  and  C_11
REMARK    6  A    between atoms: C_12  and  C_16
REMARK    7  A    between atoms: C_18  and  C_23
REMARK                            x       y       z     vdW  Elec       q    Type
REMARK                         _______ _______ _______ _____ _____    ______ ____
ROOT
ATOM      1  C   UNL     1      33.046 -14.141 -22.494  0.00  0.00    -0.021 C 
ATOM      2  C   UNL     1      34.151 -14.657 -23.153  0.00  0.00    -0.001 C 
ATOM      3  C   UNL     1      32.644 -14.641 -21.264  0.00  0.00    -0.001 C 
ATOM      4  C   UNL     1      34.480 -16.212 -21.334  0.00  0.00    +0.139 C 
ATOM      5  C   UNL     1      34.872 -15.699 -22.570  0.00  0.00    +0.037 C 
ATOM      6  C   UNL     1      33.367 -15.683 -20.681  0.00  0.00    +0.037 C 
ENDROOT
BRANCH   4   7
ATOM      7  O   UNL     1      35.182 -17.229 -20.764  0.00  0.00    -0.475 OA
BRANCH   7   8
ATOM      8  C   UNL     1      35.754 -18.195 -21.644  0.00  0.00    +0.212 C 
BRANCH   8   9
ATOM      9  C   UNL     1      34.714 -19.252 -21.996  0.00  0.00    +0.093 C 
BRANCH   9  11
ATOM     10  N   UNL     1      35.568 -20.851 -20.392  0.00  0.00    -0.248 NA
ATOM     11  C   UNL     1      34.478 -20.224 -20.866  0.00  0.00    +0.063 C 
ATOM     12  C   UNL     1      34.106 -21.982 -18.835  0.00  0.00    -0.003 C 
ATOM     13  C   UNL     1      33.193 -20.403 -20.402  0.00  0.00    +0.015 C 
ATOM     14  C   UNL     1      33.010 -21.306 -19.361  0.00  0.00    -0.002 C 
ATOM     15  C   UNL     1      35.353 -21.722 -19.381  0.00  0.00    +0.094 C 
BRANCH  12  16
ATOM     16  C   UNL     1      33.944 -22.953 -17.720  0.00  0.00    +0.028 C 
ATOM     17  C   UNL     1      32.500 -23.045 -17.229  0.00  0.00    +0.005 C 
ENDBRANCH  12  16
ENDBRANCH   9  11
ENDBRANCH   8   9
ENDBRANCH   7   8
ENDBRANCH   4   7
BRANCH   1  18
ATOM     18  C   UNL     1      32.267 -13.014 -23.123  0.00  0.00    +0.047 C 
BRANCH  18  23
ATOM     19  S   UNL     1      31.366 -10.665 -22.003  0.00  0.00    -0.048 S 
ATOM     20  O   UNL     1      34.272 -11.238 -24.477  0.00  0.00    -0.274 OA
ATOM     21  O   UNL     1      30.981  -8.306 -23.097  0.00  0.00    -0.263 OA
ATOM     22  N   UNL     1      32.699  -9.635 -23.922  0.00  0.00    -0.246 N 
ATOM     23  C   UNL     1      32.749 -11.655 -22.647  0.00  0.00    +0.137 C 
ATOM     24  C   UNL     1      33.340 -10.850 -23.781  0.00  0.00    +0.239 C 
ATOM     25  C   UNL     1      31.648  -9.329 -23.099  0.00  0.00    +0.279 C 
ATOM     26  H   UNL     1      32.996  -8.994 -24.607  0.00  0.00    +0.158 HD
ENDBRANCH  18  23
ENDBRANCH   1  18
TORSDOF 7
ENDMDL
