MODEL 1
REMARK VINA RESULT:      -6.5      0.000      0.000
REMARK  Name = 347590
REMARK  4 active torsions:
REMARK  status: ('A' for Active; 'I' for Inactive)
REMARK    1  A    between atoms: N_1  and  C_3
REMARK    2  A    between atoms: N_1  and  C_6
REMARK    3  A    between atoms: C_3  and  S_12
REMARK    4  A    between atoms: S_12  and  C_13
REMARK                            x       y       z     vdW  Elec       q    Type
REMARK                         _______ _______ _______ _____ _____    ______ ____
ROOT
ATOM      1  N   UNL     1      35.790 -18.565 -21.569  0.00  0.00    -0.191 NA
ENDROOT
BRANCH   1   2
ATOM      2  C   UNL     1      35.064 -19.552 -20.896  0.00  0.00    +0.073 C 
ATOM      3  C   UNL     1      33.672 -19.487 -20.853  0.00  0.00    +0.017 C 
ATOM      4  C   UNL     1      35.733 -20.601 -20.264  0.00  0.00    +0.017 C 
ATOM      5  C   UNL     1      32.947 -20.471 -20.180  0.00  0.00    +0.001 C 
ATOM      6  C   UNL     1      35.009 -21.585 -19.591  0.00  0.00    +0.001 C 
ATOM      7  C   UNL     1      33.616 -21.520 -19.549  0.00  0.00    +0.000 C 
ENDBRANCH   1   2
BRANCH   1   9
ATOM      8  N   UNL     1      35.181 -18.893 -23.883  0.00  0.00    -0.380 N 
ATOM      9  C   UNL     1      35.368 -18.166 -22.734  0.00  0.00    +0.150 C 
ATOM     10  H   UNL     1      34.852 -18.449 -24.698  0.00  0.00    +0.158 HD
ATOM     11  H   UNL     1      35.376 -19.858 -23.894  0.00  0.00    +0.158 HD
BRANCH   9  12
ATOM     12  S   UNL     1      34.938 -16.456 -22.927  0.00  0.00    -0.081 S 
BRANCH  12  13
ATOM     13  C   UNL     1      34.707 -15.953 -21.207  0.00  0.00    +0.065 C 
ATOM     14  C   UNL     1      33.247 -15.644 -20.933  0.00  0.00    +0.013 C 
ENDBRANCH  12  13
ENDBRANCH   9  12
ENDBRANCH   1   9
TORSDOF 4
ENDMDL
MODEL 2
REMARK VINA RESULT:      -6.5      0.046      1.396
REMARK  Name = 347590
REMARK  4 active torsions:
REMARK  status: ('A' for Active; 'I' for Inactive)
REMARK    1  A    between atoms: N_1  and  C_3
REMARK    2  A    between atoms: N_1  and  C_6
REMARK    3  A    between atoms: C_3  and  S_12
REMARK    4  A    between atoms: S_12  and  C_13
REMARK                            x       y       z     vdW  Elec       q    Type
REMARK                         _______ _______ _______ _____ _____    ______ ____
ROOT
ATOM      1  N   UNL     1      35.798 -18.601 -21.602  0.00  0.00    -0.191 NA
ENDROOT
BRANCH   1   2
ATOM      2  C   UNL     1      35.052 -19.564 -20.914  0.00  0.00    +0.073 C 
ATOM      3  C   UNL     1      35.702 -20.601 -20.246  0.00  0.00    +0.017 C 
ATOM      4  C   UNL     1      33.659 -19.488 -20.899  0.00  0.00    +0.017 C 
ATOM      5  C   UNL     1      34.959 -21.563 -19.560  0.00  0.00    +0.001 C 
ATOM      6  C   UNL     1      32.916 -20.450 -20.214  0.00  0.00    +0.001 C 
ATOM      7  C   UNL     1      33.566 -21.487 -19.545  0.00  0.00    +0.000 C 
ENDBRANCH   1   2
BRANCH   1   9
ATOM      8  N   UNL     1      35.152 -18.893 -23.910  0.00  0.00    -0.380 N 
ATOM      9  C   UNL     1      35.364 -18.183 -22.756  0.00  0.00    +0.150 C 
ATOM     10  H   UNL     1      34.817 -18.436 -24.715  0.00  0.00    +0.158 HD
ATOM     11  H   UNL     1      35.335 -19.860 -23.935  0.00  0.00    +0.158 HD
BRANCH   9  12
ATOM     12  S   UNL     1      34.953 -16.465 -22.921  0.00  0.00    -0.081 S 
BRANCH  12  13
ATOM     13  C   UNL     1      34.744 -15.983 -21.193  0.00  0.00    +0.065 C 
ATOM     14  C   UNL     1      33.289 -15.668 -20.899  0.00  0.00    +0.013 C 
ENDBRANCH  12  13
ENDBRANCH   9  12
ENDBRANCH   1   9
TORSDOF 4
ENDMDL
MODEL 3
REMARK VINA RESULT:      -6.5      1.485      2.276
REMARK  Name = 347590
REMARK  4 active torsions:
REMARK  status: ('A' for Active; 'I' for Inactive)
REMARK    1  A    between atoms: N_1  and  C_3
REMARK    2  A    between atoms: N_1  and  C_6
REMARK    3  A    between atoms: C_3  and  S_12
REMARK    4  A    between atoms: S_12  and  C_13
REMARK                            x       y       z     vdW  Elec       q    Type
REMARK                         _______ _______ _______ _____ _____    ______ ____
ROOT
ATOM      1  N   UNL     1      35.721 -18.659 -21.827  0.00  0.00    -0.191 NA
ENDROOT
BRANCH   1   2
ATOM      2  C   UNL     1      35.001 -19.574 -21.050  0.00  0.00    +0.073 C 
ATOM      3  C   UNL     1      35.674 -20.582 -20.360  0.00  0.00    +0.017 C 
ATOM      4  C   UNL     1      33.612 -19.478 -20.968  0.00  0.00    +0.017 C 
ATOM      5  C   UNL     1      34.957 -21.495 -19.586  0.00  0.00    +0.001 C 
ATOM      6  C   UNL     1      32.895 -20.392 -20.195  0.00  0.00    +0.001 C 
ATOM      7  C   UNL     1      33.568 -21.400 -19.504  0.00  0.00    +0.000 C 
ENDBRANCH   1   2
BRANCH   1   9
ATOM      8  N   UNL     1      35.022 -19.205 -24.073  0.00  0.00    -0.380 N 
ATOM      9  C   UNL     1      35.280 -18.369 -23.016  0.00  0.00    +0.150 C 
ATOM     10  H   UNL     1      34.687 -18.836 -24.923  0.00  0.00    +0.158 HD
ATOM     11  H   UNL     1      35.170 -20.174 -23.983  0.00  0.00    +0.158 HD
BRANCH   9  12
ATOM     12  S   UNL     1      34.926 -16.669 -23.384  0.00  0.00    -0.081 S 
BRANCH  12  13
ATOM     13  C   UNL     1      34.635 -16.745 -25.165  0.00  0.00    +0.065 C 
ATOM     14  C   UNL     1      33.626 -15.693 -25.586  0.00  0.00    +0.013 C 
ENDBRANCH  12  13
ENDBRANCH   9  12
ENDBRANCH   1   9
TORSDOF 4
ENDMDL
MODEL 4
REMARK VINA RESULT:      -6.4      1.272      2.591
REMARK  Name = 347590
REMARK  4 active torsions:
REMARK  status: ('A' for Active; 'I' for Inactive)
REMARK    1  A    between atoms: N_1  and  C_3
REMARK    2  A    between atoms: N_1  and  C_6
REMARK    3  A    between atoms: C_3  and  S_12
REMARK    4  A    between atoms: S_12  and  C_13
REMARK                            x       y       z     vdW  Elec       q    Type
REMARK                         _______ _______ _______ _____ _____    ______ ____
ROOT
ATOM      1  N   UNL     1      35.747 -18.605 -21.536  0.00  0.00    -0.191 NA
ENDROOT
BRANCH   1   2
ATOM      2  C   UNL     1      35.034 -19.599 -20.857  0.00  0.00    +0.073 C 
ATOM      3  C   UNL     1      35.716 -20.561 -20.113  0.00  0.00    +0.017 C 
ATOM      4  C   UNL     1      33.641 -19.629 -20.927  0.00  0.00    +0.017 C 
ATOM      5  C   UNL     1      35.006 -21.553 -19.437  0.00  0.00    +0.001 C 
ATOM      6  C   UNL     1      32.930 -20.621 -20.252  0.00  0.00    +0.001 C 
ATOM      7  C   UNL     1      33.613 -21.583 -19.507  0.00  0.00    +0.000 C 
ENDBRANCH   1   2
BRANCH   1   9
ATOM      8  N   UNL     1      35.007 -16.598 -20.416  0.00  0.00    -0.380 N 
ATOM      9  C   UNL     1      35.300 -17.383 -21.502  0.00  0.00    +0.150 C 
ATOM     10  H   UNL     1      34.673 -15.680 -20.547  0.00  0.00    +0.158 HD
ATOM     11  H   UNL     1      35.130 -16.950 -19.505  0.00  0.00    +0.158 HD
BRANCH   9  12
ATOM     12  S   UNL     1      35.028 -16.550 -23.045  0.00  0.00    -0.081 S 
BRANCH  12  13
ATOM     13  C   UNL     1      34.990 -17.942 -24.196  0.00  0.00    +0.065 C 
ATOM     14  C   UNL     1      34.160 -17.599 -25.420  0.00  0.00    +0.013 C 
ENDBRANCH  12  13
ENDBRANCH   9  12
ENDBRANCH   1   9
TORSDOF 4
ENDMDL
MODEL 5
REMARK VINA RESULT:      -6.4      1.296      1.604
REMARK  Name = 347590
REMARK  4 active torsions:
REMARK  status: ('A' for Active; 'I' for Inactive)
REMARK    1  A    between atoms: N_1  and  C_3
REMARK    2  A    between atoms: N_1  and  C_6
REMARK    3  A    between atoms: C_3  and  S_12
REMARK    4  A    between atoms: S_12  and  C_13
REMARK                            x       y       z     vdW  Elec       q    Type
REMARK                         _______ _______ _______ _____ _____    ______ ____
ROOT
ATOM      1  N   UNL     1      35.639 -18.569 -21.751  0.00  0.00    -0.191 NA
ENDROOT
BRANCH   1   2
ATOM      2  C   UNL     1      34.964 -19.542 -21.008  0.00  0.00    +0.073 C 
ATOM      3  C   UNL     1      33.569 -19.563 -20.990  0.00  0.00    +0.017 C 
ATOM      4  C   UNL     1      35.685 -20.491 -20.283  0.00  0.00    +0.017 C 
ATOM      5  C   UNL     1      32.895 -20.533 -20.248  0.00  0.00    +0.001 C 
ATOM      6  C   UNL     1      35.012 -21.460 -19.540  0.00  0.00    +0.001 C 
ATOM      7  C   UNL     1      33.617 -21.482 -19.523  0.00  0.00    +0.000 C 
ENDBRANCH   1   2
BRANCH   1   9
ATOM      8  N   UNL     1      34.981 -16.557 -20.589  0.00  0.00    -0.380 N 
ATOM      9  C   UNL     1      35.221 -17.338 -21.691  0.00  0.00    +0.150 C 
ATOM     10  H   UNL     1      34.664 -15.631 -20.701  0.00  0.00    +0.158 HD
ATOM     11  H   UNL     1      35.125 -16.921 -19.686  0.00  0.00    +0.158 HD
BRANCH   9  12
ATOM     12  S   UNL     1      34.919 -16.483 -23.217  0.00  0.00    -0.081 S 
BRANCH  12  13
ATOM     13  C   UNL     1      34.459 -14.842 -22.619  0.00  0.00    +0.065 C 
ATOM     14  C   UNL     1      33.485 -14.179 -23.575  0.00  0.00    +0.013 C 
ENDBRANCH  12  13
ENDBRANCH   9  12
ENDBRANCH   1   9
TORSDOF 4
ENDMDL
MODEL 6
REMARK VINA RESULT:      -6.2      3.989      5.882
REMARK  Name = 347590
REMARK  4 active torsions:
REMARK  status: ('A' for Active; 'I' for Inactive)
REMARK    1  A    between atoms: N_1  and  C_3
REMARK    2  A    between atoms: N_1  and  C_6
REMARK    3  A    between atoms: C_3  and  S_12
REMARK    4  A    between atoms: S_12  and  C_13
REMARK                            x       y       z     vdW  Elec       q    Type
REMARK                         _______ _______ _______ _____ _____    ______ ____
ROOT
ATOM      1  N   UNL     1      35.789 -22.365 -18.544  0.00  0.00    -0.191 NA
ENDROOT
BRANCH   1   2
ATOM      2  C   UNL     1      35.123 -21.464 -19.381  0.00  0.00    +0.073 C 
ATOM      3  C   UNL     1      35.853 -20.637 -20.237  0.00  0.00    +0.017 C 
ATOM      4  C   UNL     1      33.731 -21.389 -19.360  0.00  0.00    +0.017 C 
ATOM      5  C   UNL     1      35.190 -19.738 -21.071  0.00  0.00    +0.001 C 
ATOM      6  C   UNL     1      33.067 -20.489 -20.193  0.00  0.00    +0.001 C 
ATOM      7  C   UNL     1      33.797 -19.663 -21.050  0.00  0.00    +0.000 C 
ENDBRANCH   1   2
BRANCH   1   9
ATOM      8  N   UNL     1      37.122 -20.849 -17.219  0.00  0.00    -0.380 N 
ATOM      9  C   UNL     1      36.296 -21.923 -17.430  0.00  0.00    +0.150 C 
ATOM     10  H   UNL     1      37.428 -20.634 -16.308  0.00  0.00    +0.158 HD
ATOM     11  H   UNL     1      37.410 -20.292 -17.978  0.00  0.00    +0.158 HD
BRANCH   9  12
ATOM     12  S   UNL     1      35.883 -22.776 -15.929  0.00  0.00    -0.081 S 
BRANCH  12  13
ATOM     13  C   UNL     1      34.255 -23.443 -16.338  0.00  0.00    +0.065 C 
ATOM     14  C   UNL     1      33.300 -23.273 -15.171  0.00  0.00    +0.013 C 
ENDBRANCH  12  13
ENDBRANCH   9  12
ENDBRANCH   1   9
TORSDOF 4
ENDMDL
MODEL 7
REMARK VINA RESULT:      -6.2      4.588      6.434
REMARK  Name = 347590
REMARK  4 active torsions:
REMARK  status: ('A' for Active; 'I' for Inactive)
REMARK    1  A    between atoms: N_1  and  C_3
REMARK    2  A    between atoms: N_1  and  C_6
REMARK    3  A    between atoms: C_3  and  S_12
REMARK    4  A    between atoms: S_12  and  C_13
REMARK                            x       y       z     vdW  Elec       q    Type
REMARK                         _______ _______ _______ _____ _____    ______ ____
ROOT
ATOM      1  N   UNL     1      33.781 -23.261 -18.630  0.00  0.00    -0.191 NA
ENDROOT
BRANCH   1   2
ATOM      2  C   UNL     1      34.099 -22.100 -19.341  0.00  0.00    +0.073 C 
ATOM      3  C   UNL     1      33.083 -21.248 -19.773  0.00  0.00    +0.017 C 
ATOM      4  C   UNL     1      35.432 -21.796 -19.620  0.00  0.00    +0.017 C 
ATOM      5  C   UNL     1      33.400 -20.090 -20.484  0.00  0.00    +0.001 C 
ATOM      6  C   UNL     1      35.748 -20.639 -20.331  0.00  0.00    +0.001 C 
ATOM      7  C   UNL     1      34.732 -19.785 -20.763  0.00  0.00    +0.000 C 
ENDBRANCH   1   2
BRANCH   1   9
ATOM      8  N   UNL     1      34.629 -23.075 -16.376  0.00  0.00    -0.380 N 
ATOM      9  C   UNL     1      33.655 -23.186 -17.336  0.00  0.00    +0.150 C 
ATOM     10  H   UNL     1      34.379 -23.028 -15.425  0.00  0.00    +0.158 HD
ATOM     11  H   UNL     1      35.578 -23.043 -16.637  0.00  0.00    +0.158 HD
BRANCH   9  12
ATOM     12  S   UNL     1      32.017 -23.206 -16.654  0.00  0.00    -0.081 S 
BRANCH  12  13
ATOM     13  C   UNL     1      32.350 -23.696 -14.948  0.00  0.00    +0.065 C 
ATOM     14  C   UNL     1      31.284 -23.147 -14.018  0.00  0.00    +0.013 C 
ENDBRANCH  12  13
ENDBRANCH   9  12
ENDBRANCH   1   9
TORSDOF 4
ENDMDL
MODEL 8
REMARK VINA RESULT:      -6.2      3.496      4.676
REMARK  Name = 347590
REMARK  4 active torsions:
REMARK  status: ('A' for Active; 'I' for Inactive)
REMARK    1  A    between atoms: N_1  and  C_3
REMARK    2  A    between atoms: N_1  and  C_6
REMARK    3  A    between atoms: C_3  and  S_12
REMARK    4  A    between atoms: S_12  and  C_13
REMARK                            x       y       z     vdW  Elec       q    Type
REMARK                         _______ _______ _______ _____ _____    ______ ____
ROOT
ATOM      1  N   UNL     1      34.934 -15.213 -23.383  0.00  0.00    -0.191 NA
ENDROOT
BRANCH   1   2
ATOM      2  C   UNL     1      34.912 -16.604 -23.527  0.00  0.00    +0.073 C 
ATOM      3  C   UNL     1      34.534 -17.173 -24.743  0.00  0.00    +0.017 C 
ATOM      4  C   UNL     1      35.266 -17.423 -22.454  0.00  0.00    +0.017 C 
ATOM      5  C   UNL     1      34.510 -18.560 -24.888  0.00  0.00    +0.001 C 
ATOM      6  C   UNL     1      35.241 -18.810 -22.598  0.00  0.00    +0.001 C 
ATOM      7  C   UNL     1      34.864 -19.379 -23.815  0.00  0.00    +0.000 C 
ENDBRANCH   1   2
BRANCH   1   9
ATOM      8  N   UNL     1      32.812 -14.799 -22.308  0.00  0.00    -0.380 N 
ATOM      9  C   UNL     1      33.806 -14.584 -23.229  0.00  0.00    +0.150 C 
ATOM     10  H   UNL     1      32.005 -14.235 -22.314  0.00  0.00    +0.158 HD
ATOM     11  H   UNL     1      32.904 -15.518 -21.641  0.00  0.00    +0.158 HD
BRANCH   9  12
ATOM     12  S   UNL     1      33.448 -13.231 -24.321  0.00  0.00    -0.081 S 
BRANCH  12  13
ATOM     13  C   UNL     1      32.971 -14.108 -25.826  0.00  0.00    +0.065 C 
ATOM     14  C   UNL     1      33.279 -13.269 -27.052  0.00  0.00    +0.013 C 
ENDBRANCH  12  13
ENDBRANCH   9  12
ENDBRANCH   1   9
TORSDOF 4
ENDMDL
MODEL 9
REMARK VINA RESULT:      -6.1      8.363     10.772
REMARK  Name = 347590
REMARK  4 active torsions:
REMARK  status: ('A' for Active; 'I' for Inactive)
REMARK    1  A    between atoms: N_1  and  C_3
REMARK    2  A    between atoms: N_1  and  C_6
REMARK    3  A    between atoms: C_3  and  S_12
REMARK    4  A    between atoms: S_12  and  C_13
REMARK                            x       y       z     vdW  Elec       q    Type
REMARK                         _______ _______ _______ _____ _____    ______ ____
ROOT
ATOM      1  N   UNL     1      31.881  -8.692 -21.594  0.00  0.00    -0.191 NA
ENDROOT
BRANCH   1   2
ATOM      2  C   UNL     1      32.917  -8.788 -22.527  0.00  0.00    +0.073 C 
ATOM      3  C   UNL     1      33.772  -7.705 -22.734  0.00  0.00    +0.017 C 
ATOM      4  C   UNL     1      33.095  -9.965 -23.254  0.00  0.00    +0.017 C 
ATOM      5  C   UNL     1      34.805  -7.799 -23.666  0.00  0.00    +0.001 C 
ATOM      6  C   UNL     1      34.127 -10.059 -24.187  0.00  0.00    +0.001 C 
ATOM      7  C   UNL     1      34.983  -8.976 -24.393  0.00  0.00    +0.000 C 
ENDBRANCH   1   2
BRANCH   1   9
ATOM      8  N   UNL     1      32.762  -7.653 -19.600  0.00  0.00    -0.380 N 
ATOM      9  C   UNL     1      32.183  -8.661 -20.328  0.00  0.00    +0.150 C 
ATOM     10  H   UNL     1      32.932  -7.775 -18.637  0.00  0.00    +0.158 HD
ATOM     11  H   UNL     1      33.010  -6.807 -20.039  0.00  0.00    +0.158 HD
BRANCH   9  12
ATOM     12  S   UNL     1      31.798 -10.086 -19.343  0.00  0.00    -0.081 S 
BRANCH  12  13
ATOM     13  C   UNL     1      30.913 -11.113 -20.536  0.00  0.00    +0.065 C 
ATOM     14  C   UNL     1      31.720 -12.352 -20.876  0.00  0.00    +0.013 C 
ENDBRANCH  12  13
ENDBRANCH   9  12
ENDBRANCH   1   9
TORSDOF 4
ENDMDL
