MODEL 1
REMARK VINA RESULT:     -10.9      0.000      0.000
REMARK  Name = 48041
REMARK  6 active torsions:
REMARK  status: ('A' for Active; 'I' for Inactive)
REMARK    1  A    between atoms: C_1  and  C_19
REMARK    2  A    between atoms: C_2  and  N_8
REMARK    3  A    between atoms: C_9  and  C_11
REMARK    4  A    between atoms: C_16  and  O_17
REMARK    5  A    between atoms: C_19  and  C_20
REMARK    6  A    between atoms: C_20  and  C_22
REMARK                            x       y       z     vdW  Elec       q    Type
REMARK                         _______ _______ _______ _____ _____    ______ ____
ROOT
ATOM      1  C   UNL     1      32.570 -23.711 -15.173  0.00  0.00    -0.009 C 
ATOM      2  C   UNL     1      31.899 -23.236 -16.291  0.00  0.00    +0.046 C 
ATOM      3  C   UNL     1      31.908 -24.459 -14.208  0.00  0.00    -0.003 C 
ATOM      4  C   UNL     1      30.540 -23.514 -16.448  0.00  0.00    +0.014 C 
ATOM      5  C   UNL     1      30.550 -24.737 -14.366  0.00  0.00    -0.000 C 
ATOM      6  C   UNL     1      29.866 -24.264 -15.485  0.00  0.00    +0.001 C 
ENDROOT
BRANCH   2   8
ATOM      7  O   UNL     1      33.717 -24.101 -18.514  0.00  0.00    -0.270 OA
ATOM      8  N   UNL     1      32.555 -22.481 -17.267  0.00  0.00    -0.281 N 
ATOM      9  C   UNL     1      33.398 -22.938 -18.288  0.00  0.00    +0.249 C 
ATOM     10  H   UNL     1      32.408 -21.508 -17.232  0.00  0.00    +0.155 HD
BRANCH   9  11
ATOM     11  C   UNL     1      33.973 -21.880 -19.158  0.00  0.00    +0.054 C 
ATOM     12  C   UNL     1      33.118 -21.005 -19.793  0.00  0.00    +0.008 C 
ATOM     13  C   UNL     1      35.343 -21.808 -19.301  0.00  0.00    +0.008 C 
ATOM     14  C   UNL     1      33.658 -20.011 -20.610  0.00  0.00    +0.037 C 
ATOM     15  C   UNL     1      35.883 -20.814 -20.118  0.00  0.00    +0.037 C 
ATOM     16  C   UNL     1      35.040 -19.915 -20.773  0.00  0.00    +0.139 C 
BRANCH  16  17
ATOM     17  O   UNL     1      35.566 -18.944 -21.568  0.00  0.00    -0.471 OA
ATOM     18  C   UNL     1      35.250 -17.593 -21.237  0.00  0.00    +0.252 C 
ENDBRANCH  16  17
ENDBRANCH   9  11
ENDBRANCH   2   8
BRANCH   1  19
ATOM     19  C   UNL     1      34.037 -23.426 -14.977  0.00  0.00    +0.026 C 
BRANCH  19  20
ATOM     20  C   UNL     1      34.846 -24.716 -14.919  0.00  0.00    -0.016 C 
BRANCH  20  22
ATOM     21  N   UNL     1      36.635 -25.928 -13.725  0.00  0.00    +0.387 N 
ATOM     22  C   UNL     1      35.909 -24.645 -13.814  0.00  0.00    -0.058 C 
ATOM     23  C   UNL     1      36.837 -23.430 -14.002  0.00  0.00    -0.021 C 
ATOM     24  C   UNL     1      37.833 -23.621 -15.142  0.00  0.00    -0.004 C 
ATOM     25  C   UNL     1      37.606 -26.111 -14.813  0.00  0.00    -0.077 C 
ATOM     26  C   UNL     1      38.576 -24.941 -14.993  0.00  0.00    -0.023 C 
ATOM     27  C   UNL     1      37.256 -26.111 -12.412  0.00  0.00    -0.101 C 
ATOM     28  H   UNL     1      35.932 -26.659 -13.839  0.00  0.00    -0.080 HD
ENDBRANCH  20  22
ENDBRANCH  19  20
ENDBRANCH   1  19
TORSDOF 6
ENDMDL
MODEL 2
REMARK VINA RESULT:     -10.8      0.726      1.655
REMARK  Name = 48041
REMARK  6 active torsions:
REMARK  status: ('A' for Active; 'I' for Inactive)
REMARK    1  A    between atoms: C_1  and  C_19
REMARK    2  A    between atoms: C_2  and  N_8
REMARK    3  A    between atoms: C_9  and  C_11
REMARK    4  A    between atoms: C_16  and  O_17
REMARK    5  A    between atoms: C_19  and  C_20
REMARK    6  A    between atoms: C_20  and  C_22
REMARK                            x       y       z     vdW  Elec       q    Type
REMARK                         _______ _______ _______ _____ _____    ______ ____
ROOT
ATOM      1  C   UNL     1      32.735 -23.665 -15.137  0.00  0.00    -0.009 C 
ATOM      2  C   UNL     1      32.028 -23.304 -16.275  0.00  0.00    +0.046 C 
ATOM      3  C   UNL     1      32.149 -24.446 -14.150  0.00  0.00    -0.003 C 
ATOM      4  C   UNL     1      30.708 -23.732 -16.429  0.00  0.00    +0.014 C 
ATOM      5  C   UNL     1      30.831 -24.873 -14.304  0.00  0.00    -0.000 C 
ATOM      6  C   UNL     1      30.110 -24.516 -15.443  0.00  0.00    +0.001 C 
ENDROOT
BRANCH   2   8
ATOM      7  O   UNL     1      33.778 -24.081 -18.582  0.00  0.00    -0.270 OA
ATOM      8  N   UNL     1      32.608 -22.518 -17.273  0.00  0.00    -0.281 N 
ATOM      9  C   UNL     1      33.422 -22.934 -18.334  0.00  0.00    +0.249 C 
ATOM     10  H   UNL     1      32.423 -21.552 -17.225  0.00  0.00    +0.155 HD
BRANCH   9  11
ATOM     11  C   UNL     1      33.914 -21.848 -19.221  0.00  0.00    +0.054 C 
ATOM     12  C   UNL     1      35.268 -21.748 -19.461  0.00  0.00    +0.008 C 
ATOM     13  C   UNL     1      33.001 -20.977 -19.778  0.00  0.00    +0.008 C 
ATOM     14  C   UNL     1      35.731 -20.730 -20.295  0.00  0.00    +0.037 C 
ATOM     15  C   UNL     1      33.463 -19.959 -20.612  0.00  0.00    +0.037 C 
ATOM     16  C   UNL     1      34.828 -19.835 -20.871  0.00  0.00    +0.139 C 
BRANCH  16  17
ATOM     17  O   UNL     1      35.279 -18.844 -21.685  0.00  0.00    -0.471 OA
ATOM     18  C   UNL     1      35.186 -17.507 -21.193  0.00  0.00    +0.252 C 
ENDBRANCH  16  17
ENDBRANCH   9  11
ENDBRANCH   2   8
BRANCH   1  19
ATOM     19  C   UNL     1      34.162 -23.218 -14.943  0.00  0.00    +0.026 C 
BRANCH  19  20
ATOM     20  C   UNL     1      35.120 -24.401 -14.974  0.00  0.00    -0.016 C 
BRANCH  20  22
ATOM     21  N   UNL     1      36.347 -23.854 -12.903  0.00  0.00    +0.387 N 
ATOM     22  C   UNL     1      36.477 -24.023 -14.364  0.00  0.00    -0.058 C 
ATOM     23  C   UNL     1      37.575 -25.024 -14.768  0.00  0.00    -0.021 C 
ATOM     24  C   UNL     1      37.457 -26.356 -14.032  0.00  0.00    -0.004 C 
ATOM     25  C   UNL     1      36.247 -25.135 -12.187  0.00  0.00    -0.077 C 
ATOM     26  C   UNL     1      37.354 -26.134 -12.529  0.00  0.00    -0.023 C 
ATOM     27  C   UNL     1      37.413 -23.013 -12.356  0.00  0.00    -0.101 C 
ATOM     28  H   UNL     1      35.462 -23.370 -12.751  0.00  0.00    -0.080 HD
ENDBRANCH  20  22
ENDBRANCH  19  20
ENDBRANCH   1  19
TORSDOF 6
ENDMDL
MODEL 3
REMARK VINA RESULT:      -9.9      1.887      5.032
REMARK  Name = 48041
REMARK  6 active torsions:
REMARK  status: ('A' for Active; 'I' for Inactive)
REMARK    1  A    between atoms: C_1  and  C_19
REMARK    2  A    between atoms: C_2  and  N_8
REMARK    3  A    between atoms: C_9  and  C_11
REMARK    4  A    between atoms: C_16  and  O_17
REMARK    5  A    between atoms: C_19  and  C_20
REMARK    6  A    between atoms: C_20  and  C_22
REMARK                            x       y       z     vdW  Elec       q    Type
REMARK                         _______ _______ _______ _____ _____    ______ ____
ROOT
ATOM      1  C   UNL     1      35.053 -23.131 -16.276  0.00  0.00    -0.009 C 
ATOM      2  C   UNL     1      36.087 -22.404 -16.852  0.00  0.00    +0.046 C 
ATOM      3  C   UNL     1      35.300 -24.031 -15.248  0.00  0.00    -0.003 C 
ATOM      4  C   UNL     1      37.392 -22.581 -16.390  0.00  0.00    +0.014 C 
ATOM      5  C   UNL     1      36.605 -24.207 -14.787  0.00  0.00    -0.000 C 
ATOM      6  C   UNL     1      37.651 -23.483 -15.359  0.00  0.00    +0.001 C 
ENDROOT
BRANCH   2   8
ATOM      7  O   UNL     1      35.188 -22.878 -19.673  0.00  0.00    -0.270 OA
ATOM      8  N   UNL     1      35.849 -21.498 -17.888  0.00  0.00    -0.281 N 
ATOM      9  C   UNL     1      35.428 -21.774 -19.195  0.00  0.00    +0.249 C 
ATOM     10  H   UNL     1      35.995 -20.548 -17.673  0.00  0.00    +0.155 HD
BRANCH   9  11
ATOM     11  C   UNL     1      35.290 -20.590 -20.082  0.00  0.00    +0.054 C 
ATOM     12  C   UNL     1      34.032 -20.224 -20.511  0.00  0.00    +0.008 C 
ATOM     13  C   UNL     1      36.424 -19.894 -20.445  0.00  0.00    +0.008 C 
ATOM     14  C   UNL     1      33.901 -19.112 -21.343  0.00  0.00    +0.037 C 
ATOM     15  C   UNL     1      36.294 -18.782 -21.277  0.00  0.00    +0.037 C 
ATOM     16  C   UNL     1      35.033 -18.391 -21.726  0.00  0.00    +0.139 C 
BRANCH  16  17
ATOM     17  O   UNL     1      34.904 -17.305 -22.536  0.00  0.00    -0.471 OA
ATOM     18  C   UNL     1      34.879 -17.545 -23.943  0.00  0.00    +0.252 C 
ENDBRANCH  16  17
ENDBRANCH   9  11
ENDBRANCH   2   8
BRANCH   1  19
ATOM     19  C   UNL     1      33.634 -22.961 -16.754  0.00  0.00    +0.026 C 
BRANCH  19  20
ATOM     20  C   UNL     1      32.680 -23.865 -15.983  0.00  0.00    -0.016 C 
BRANCH  20  22
ATOM     21  N   UNL     1      30.257 -23.550 -16.330  0.00  0.00    +0.387 N 
ATOM     22  C   UNL     1      31.425 -23.095 -15.551  0.00  0.00    -0.058 C 
ATOM     23  C   UNL     1      31.212 -23.173 -14.028  0.00  0.00    -0.021 C 
ATOM     24  C   UNL     1      30.701 -24.537 -13.575  0.00  0.00    -0.004 C 
ATOM     25  C   UNL     1      29.751 -24.858 -15.889  0.00  0.00    -0.077 C 
ATOM     26  C   UNL     1      29.481 -24.953 -14.386  0.00  0.00    -0.023 C 
ATOM     27  C   UNL     1      29.194 -22.544 -16.357  0.00  0.00    -0.101 C 
ATOM     28  H   UNL     1      30.586 -23.676 -17.288  0.00  0.00    -0.080 HD
ENDBRANCH  20  22
ENDBRANCH  19  20
ENDBRANCH   1  19
TORSDOF 6
ENDMDL
MODEL 4
REMARK VINA RESULT:      -8.8     11.956     15.569
REMARK  Name = 48041
REMARK  6 active torsions:
REMARK  status: ('A' for Active; 'I' for Inactive)
REMARK    1  A    between atoms: C_1  and  C_19
REMARK    2  A    between atoms: C_2  and  N_8
REMARK    3  A    between atoms: C_9  and  C_11
REMARK    4  A    between atoms: C_16  and  O_17
REMARK    5  A    between atoms: C_19  and  C_20
REMARK    6  A    between atoms: C_20  and  C_22
REMARK                            x       y       z     vdW  Elec       q    Type
REMARK                         _______ _______ _______ _____ _____    ______ ____
ROOT
ATOM      1  C   UNL     1      31.836 -10.582 -21.547  0.00  0.00    -0.009 C 
ATOM      2  C   UNL     1      32.193  -9.263 -21.303  0.00  0.00    +0.046 C 
ATOM      3  C   UNL     1      31.403 -11.406 -20.517  0.00  0.00    -0.003 C 
ATOM      4  C   UNL     1      32.116  -8.758 -20.004  0.00  0.00    +0.014 C 
ATOM      5  C   UNL     1      31.326 -10.902 -19.220  0.00  0.00    -0.000 C 
ATOM      6  C   UNL     1      31.683  -9.578 -18.962  0.00  0.00    +0.001 C 
ENDROOT
BRANCH   2   8
ATOM      7  O   UNL     1      30.812  -6.975 -22.662  0.00  0.00    -0.270 OA
ATOM      8  N   UNL     1      32.632  -8.426 -22.332  0.00  0.00    -0.281 N 
ATOM      9  C   UNL     1      31.942  -7.366 -22.934  0.00  0.00    +0.249 C 
ATOM     10  H   UNL     1      33.537  -8.603 -22.677  0.00  0.00    +0.155 HD
BRANCH   9  11
ATOM     11  C   UNL     1      32.669  -6.676 -24.031  0.00  0.00    +0.054 C 
ATOM     12  C   UNL     1      32.014  -5.699 -24.750  0.00  0.00    +0.008 C 
ATOM     13  C   UNL     1      33.975  -7.034 -24.294  0.00  0.00    +0.008 C 
ATOM     14  C   UNL     1      32.695  -5.051 -25.780  0.00  0.00    +0.037 C 
ATOM     15  C   UNL     1      34.656  -6.386 -25.324  0.00  0.00    +0.037 C 
ATOM     16  C   UNL     1      34.017  -5.394 -26.067  0.00  0.00    +0.139 C 
BRANCH  16  17
ATOM     17  O   UNL     1      34.682  -4.759 -27.070  0.00  0.00    -0.471 OA
ATOM     18  C   UNL     1      33.906  -4.316 -28.183  0.00  0.00    +0.252 C 
ENDBRANCH  16  17
ENDBRANCH   9  11
ENDBRANCH   2   8
BRANCH   1  19
ATOM     19  C   UNL     1      31.910 -11.153 -22.940  0.00  0.00    +0.026 C 
BRANCH  19  20
ATOM     20  C   UNL     1      31.998 -12.674 -22.908  0.00  0.00    -0.016 C 
BRANCH  20  22
ATOM     21  N   UNL     1      33.310 -14.500 -23.925  0.00  0.00    +0.387 N 
ATOM     22  C   UNL     1      33.393 -13.151 -23.334  0.00  0.00    -0.058 C 
ATOM     23  C   UNL     1      34.084 -12.124 -24.250  0.00  0.00    -0.021 C 
ATOM     24  C   UNL     1      33.505 -12.110 -25.661  0.00  0.00    -0.004 C 
ATOM     25  C   UNL     1      32.765 -14.493 -25.291  0.00  0.00    -0.077 C 
ATOM     26  C   UNL     1      33.464 -13.518 -26.241  0.00  0.00    -0.023 C 
ATOM     27  C   UNL     1      34.593 -15.202 -23.862  0.00  0.00    -0.101 C 
ATOM     28  H   UNL     1      32.645 -15.020 -23.353  0.00  0.00    -0.080 HD
ENDBRANCH  20  22
ENDBRANCH  19  20
ENDBRANCH   1  19
TORSDOF 6
ENDMDL
MODEL 5
REMARK VINA RESULT:      -8.8      3.905     10.244
REMARK  Name = 48041
REMARK  6 active torsions:
REMARK  status: ('A' for Active; 'I' for Inactive)
REMARK    1  A    between atoms: C_1  and  C_19
REMARK    2  A    between atoms: C_2  and  N_8
REMARK    3  A    between atoms: C_9  and  C_11
REMARK    4  A    between atoms: C_16  and  O_17
REMARK    5  A    between atoms: C_19  and  C_20
REMARK    6  A    between atoms: C_20  and  C_22
REMARK                            x       y       z     vdW  Elec       q    Type
REMARK                         _______ _______ _______ _____ _____    ______ ____
ROOT
ATOM      1  C   UNL     1      34.749 -17.544 -22.985  0.00  0.00    -0.009 C 
ATOM      2  C   UNL     1      34.812 -18.929 -23.062  0.00  0.00    +0.046 C 
ATOM      3  C   UNL     1      34.604 -16.772 -24.129  0.00  0.00    -0.003 C 
ATOM      4  C   UNL     1      34.729 -19.553 -24.307  0.00  0.00    +0.014 C 
ATOM      5  C   UNL     1      34.522 -17.396 -25.374  0.00  0.00    -0.000 C 
ATOM      6  C   UNL     1      34.585 -18.786 -25.463  0.00  0.00    +0.001 C 
ENDROOT
BRANCH   2   8
ATOM      7  O   UNL     1      32.751 -19.971 -21.149  0.00  0.00    -0.270 OA
ATOM      8  N   UNL     1      34.959 -19.714 -21.916  0.00  0.00    -0.281 N 
ATOM      9  C   UNL     1      33.957 -20.176 -21.053  0.00  0.00    +0.249 C 
ATOM     10  H   UNL     1      35.880 -19.976 -21.686  0.00  0.00    +0.155 HD
BRANCH   9  11
ATOM     11  C   UNL     1      34.434 -20.974 -19.894  0.00  0.00    +0.054 C 
ATOM     12  C   UNL     1      33.527 -21.748 -19.202  0.00  0.00    +0.008 C 
ATOM     13  C   UNL     1      35.768 -20.915 -19.549  0.00  0.00    +0.008 C 
ATOM     14  C   UNL     1      33.974 -22.498 -18.114  0.00  0.00    +0.037 C 
ATOM     15  C   UNL     1      36.215 -21.665 -18.461  0.00  0.00    +0.037 C 
ATOM     16  C   UNL     1      35.319 -22.457 -17.744  0.00  0.00    +0.139 C 
BRANCH  16  17
ATOM     17  O   UNL     1      35.755 -23.190 -16.683  0.00  0.00    -0.471 OA
ATOM     18  C   UNL     1      36.895 -22.698 -15.980  0.00  0.00    +0.252 C 
ENDBRANCH  16  17
ENDBRANCH   9  11
ENDBRANCH   2   8
BRANCH   1  19
ATOM     19  C   UNL     1      34.836 -16.843 -21.653  0.00  0.00    +0.026 C 
BRANCH  19  20
ATOM     20  C   UNL     1      33.670 -15.882 -21.459  0.00  0.00    -0.016 C 
BRANCH  20  22
ATOM     21  N   UNL     1      33.480 -13.967 -23.005  0.00  0.00    +0.387 N 
ATOM     22  C   UNL     1      34.098 -14.437 -21.750  0.00  0.00    -0.058 C 
ATOM     23  C   UNL     1      33.818 -13.514 -20.549  0.00  0.00    -0.021 C 
ATOM     24  C   UNL     1      32.336 -13.191 -20.387  0.00  0.00    -0.004 C 
ATOM     25  C   UNL     1      32.054 -13.640 -22.853  0.00  0.00    -0.077 C 
ATOM     26  C   UNL     1      31.748 -12.685 -21.698  0.00  0.00    -0.023 C 
ATOM     27  C   UNL     1      34.226 -12.855 -23.597  0.00  0.00    -0.101 C 
ATOM     28  H   UNL     1      33.528 -14.752 -23.656  0.00  0.00    -0.080 HD
ENDBRANCH  20  22
ENDBRANCH  19  20
ENDBRANCH   1  19
TORSDOF 6
ENDMDL
MODEL 6
REMARK VINA RESULT:      -8.7     10.796     15.082
REMARK  Name = 48041
REMARK  6 active torsions:
REMARK  status: ('A' for Active; 'I' for Inactive)
REMARK    1  A    between atoms: C_1  and  C_19
REMARK    2  A    between atoms: C_2  and  N_8
REMARK    3  A    between atoms: C_9  and  C_11
REMARK    4  A    between atoms: C_16  and  O_17
REMARK    5  A    between atoms: C_19  and  C_20
REMARK    6  A    between atoms: C_20  and  C_22
REMARK                            x       y       z     vdW  Elec       q    Type
REMARK                         _______ _______ _______ _____ _____    ______ ____
ROOT
ATOM      1  C   UNL     1      31.872 -10.635 -21.493  0.00  0.00    -0.009 C 
ATOM      2  C   UNL     1      32.195  -9.304 -21.266  0.00  0.00    +0.046 C 
ATOM      3  C   UNL     1      31.424 -11.447 -20.459  0.00  0.00    -0.003 C 
ATOM      4  C   UNL     1      32.068  -8.775 -19.981  0.00  0.00    +0.014 C 
ATOM      5  C   UNL     1      31.298 -10.918 -19.175  0.00  0.00    -0.000 C 
ATOM      6  C   UNL     1      31.620  -9.582 -18.936  0.00  0.00    +0.001 C 
ENDROOT
BRANCH   2   8
ATOM      7  O   UNL     1      30.864  -6.983 -22.619  0.00  0.00    -0.270 OA
ATOM      8  N   UNL     1      32.648  -8.480 -22.299  0.00  0.00    -0.281 N 
ATOM      9  C   UNL     1      31.982  -7.403 -22.897  0.00  0.00    +0.249 C 
ATOM     10  H   UNL     1      33.547  -8.680 -22.650  0.00  0.00    +0.155 HD
BRANCH   9  11
ATOM     11  C   UNL     1      32.719  -6.733 -24.000  0.00  0.00    +0.054 C 
ATOM     12  C   UNL     1      34.035  -7.078 -24.226  0.00  0.00    +0.008 C 
ATOM     13  C   UNL     1      32.063  -5.790 -24.763  0.00  0.00    +0.008 C 
ATOM     14  C   UNL     1      34.727  -6.450 -25.261  0.00  0.00    +0.037 C 
ATOM     15  C   UNL     1      32.755  -5.162 -25.799  0.00  0.00    +0.037 C 
ATOM     16  C   UNL     1      34.087  -5.492 -26.048  0.00  0.00    +0.139 C 
BRANCH  16  17
ATOM     17  O   UNL     1      34.762  -4.881 -27.060  0.00  0.00    -0.471 OA
ATOM     18  C   UNL     1      33.982  -4.327 -28.118  0.00  0.00    +0.252 C 
ENDBRANCH  16  17
ENDBRANCH   9  11
ENDBRANCH   2   8
BRANCH   1  19
ATOM     19  C   UNL     1      32.000 -11.233 -22.870  0.00  0.00    +0.026 C 
BRANCH  19  20
ATOM     20  C   UNL     1      33.211 -12.153 -22.962  0.00  0.00    -0.016 C 
BRANCH  20  22
ATOM     21  N   UNL     1      33.914 -14.338 -23.871  0.00  0.00    +0.387 N 
ATOM     22  C   UNL     1      32.784 -13.591 -23.285  0.00  0.00    -0.058 C 
ATOM     23  C   UNL     1      32.165 -14.284 -22.056  0.00  0.00    -0.021 C 
ATOM     24  C   UNL     1      33.209 -14.679 -21.016  0.00  0.00    -0.004 C 
ATOM     25  C   UNL     1      34.917 -14.734 -22.871  0.00  0.00    -0.077 C 
ATOM     26  C   UNL     1      34.340 -15.469 -21.660  0.00  0.00    -0.023 C 
ATOM     27  C   UNL     1      33.459 -15.484 -24.659  0.00  0.00    -0.101 C 
ATOM     28  H   UNL     1      34.381 -13.691 -24.507  0.00  0.00    -0.080 HD
ENDBRANCH  20  22
ENDBRANCH  19  20
ENDBRANCH   1  19
TORSDOF 6
ENDMDL
MODEL 7
REMARK VINA RESULT:      -8.6      2.676      6.887
REMARK  Name = 48041
REMARK  6 active torsions:
REMARK  status: ('A' for Active; 'I' for Inactive)
REMARK    1  A    between atoms: C_1  and  C_19
REMARK    2  A    between atoms: C_2  and  N_8
REMARK    3  A    between atoms: C_9  and  C_11
REMARK    4  A    between atoms: C_16  and  O_17
REMARK    5  A    between atoms: C_19  and  C_20
REMARK    6  A    between atoms: C_20  and  C_22
REMARK                            x       y       z     vdW  Elec       q    Type
REMARK                         _______ _______ _______ _____ _____    ______ ____
ROOT
ATOM      1  C   UNL     1      36.433 -23.060 -15.826  0.00  0.00    -0.009 C 
ATOM      2  C   UNL     1      35.638 -24.077 -15.316  0.00  0.00    +0.046 C 
ATOM      3  C   UNL     1      37.818 -23.140 -15.770  0.00  0.00    -0.003 C 
ATOM      4  C   UNL     1      36.239 -25.196 -14.738  0.00  0.00    +0.014 C 
ATOM      5  C   UNL     1      38.418 -24.258 -15.192  0.00  0.00    -0.000 C 
ATOM      6  C   UNL     1      37.630 -25.286 -14.676  0.00  0.00    +0.001 C 
ENDROOT
BRANCH   2   8
ATOM      7  O   UNL     1      33.604 -24.313 -13.125  0.00  0.00    -0.270 OA
ATOM      8  N   UNL     1      34.244 -24.005 -15.366  0.00  0.00    -0.281 N 
ATOM      9  C   UNL     1      33.335 -24.123 -14.307  0.00  0.00    +0.249 C 
ATOM     10  H   UNL     1      33.850 -23.853 -16.257  0.00  0.00    +0.155 HD
BRANCH   9  11
ATOM     11  C   UNL     1      31.902 -24.029 -14.685  0.00  0.00    +0.054 C 
ATOM     12  C   UNL     1      31.006 -24.912 -14.119  0.00  0.00    +0.008 C 
ATOM     13  C   UNL     1      31.512 -23.062 -15.588  0.00  0.00    +0.008 C 
ATOM     14  C   UNL     1      29.660 -24.824 -14.473  0.00  0.00    +0.037 C 
ATOM     15  C   UNL     1      30.166 -22.975 -15.942  0.00  0.00    +0.037 C 
ATOM     16  C   UNL     1      29.239 -23.855 -15.384  0.00  0.00    +0.139 C 
BRANCH  16  17
ATOM     17  O   UNL     1      27.926 -23.769 -15.728  0.00  0.00    -0.471 OA
ATOM     18  C   UNL     1      27.375 -22.460 -15.864  0.00  0.00    +0.252 C 
ENDBRANCH  16  17
ENDBRANCH   9  11
ENDBRANCH   2   8
BRANCH   1  19
ATOM     19  C   UNL     1      35.810 -21.840 -16.456  0.00  0.00    +0.026 C 
BRANCH  19  20
ATOM     20  C   UNL     1      36.613 -21.372 -17.663  0.00  0.00    -0.016 C 
BRANCH  20  22
ATOM     21  N   UNL     1      34.682 -22.251 -18.924  0.00  0.00    +0.387 N 
ATOM     22  C   UNL     1      36.149 -22.087 -18.940  0.00  0.00    -0.058 C 
ATOM     23  C   UNL     1      36.671 -21.379 -20.204  0.00  0.00    -0.021 C 
ATOM     24  C   UNL     1      35.932 -20.076 -20.496  0.00  0.00    -0.004 C 
ATOM     25  C   UNL     1      33.964 -21.003 -19.220  0.00  0.00    -0.077 C 
ATOM     26  C   UNL     1      34.426 -20.299 -20.498  0.00  0.00    -0.023 C 
ATOM     27  C   UNL     1      34.247 -23.341 -19.800  0.00  0.00    -0.101 C 
ATOM     28  H   UNL     1      34.435 -22.506 -17.968  0.00  0.00    -0.080 HD
ENDBRANCH  20  22
ENDBRANCH  19  20
ENDBRANCH   1  19
TORSDOF 6
ENDMDL
MODEL 8
REMARK VINA RESULT:      -8.6      3.844      9.844
REMARK  Name = 48041
REMARK  6 active torsions:
REMARK  status: ('A' for Active; 'I' for Inactive)
REMARK    1  A    between atoms: C_1  and  C_19
REMARK    2  A    between atoms: C_2  and  N_8
REMARK    3  A    between atoms: C_9  and  C_11
REMARK    4  A    between atoms: C_16  and  O_17
REMARK    5  A    between atoms: C_19  and  C_20
REMARK    6  A    between atoms: C_20  and  C_22
REMARK                            x       y       z     vdW  Elec       q    Type
REMARK                         _______ _______ _______ _____ _____    ______ ____
ROOT
ATOM      1  C   UNL     1      35.116 -17.578 -23.141  0.00  0.00    -0.009 C 
ATOM      2  C   UNL     1      34.912 -18.951 -23.144  0.00  0.00    +0.046 C 
ATOM      3  C   UNL     1      34.943 -16.829 -24.297  0.00  0.00    -0.003 C 
ATOM      4  C   UNL     1      34.527 -19.587 -24.325  0.00  0.00    +0.014 C 
ATOM      5  C   UNL     1      34.558 -17.465 -25.477  0.00  0.00    -0.000 C 
ATOM      6  C   UNL     1      34.351 -18.844 -25.491  0.00  0.00    +0.001 C 
ENDROOT
BRANCH   2   8
ATOM      7  O   UNL     1      32.910 -19.866 -21.107  0.00  0.00    -0.270 OA
ATOM      8  N   UNL     1      35.085 -19.714 -21.986  0.00  0.00    -0.281 N 
ATOM      9  C   UNL     1      34.111 -20.115 -21.064  0.00  0.00    +0.249 C 
ATOM     10  H   UNL     1      36.007 -20.005 -21.794  0.00  0.00    +0.155 HD
BRANCH   9  11
ATOM     11  C   UNL     1      34.614 -20.902 -19.909  0.00  0.00    +0.054 C 
ATOM     12  C   UNL     1      33.729 -21.696 -19.210  0.00  0.00    +0.008 C 
ATOM     13  C   UNL     1      35.949 -20.815 -19.574  0.00  0.00    +0.008 C 
ATOM     14  C   UNL     1      34.201 -22.436 -18.126  0.00  0.00    +0.037 C 
ATOM     15  C   UNL     1      36.421 -21.555 -18.490  0.00  0.00    +0.037 C 
ATOM     16  C   UNL     1      35.547 -22.366 -17.766  0.00  0.00    +0.139 C 
BRANCH  16  17
ATOM     17  O   UNL     1      36.007 -23.089 -16.709  0.00  0.00    -0.471 OA
ATOM     18  C   UNL     1      37.071 -22.519 -15.946  0.00  0.00    +0.252 C 
ENDBRANCH  16  17
ENDBRANCH   9  11
ENDBRANCH   2   8
BRANCH   1  19
ATOM     19  C   UNL     1      35.533 -16.864 -21.880  0.00  0.00    +0.026 C 
BRANCH  19  20
ATOM     20  C   UNL     1      34.876 -15.493 -21.780  0.00  0.00    -0.016 C 
BRANCH  20  22
ATOM     21  N   UNL     1      32.795 -15.400 -20.455  0.00  0.00    +0.387 N 
ATOM     22  C   UNL     1      33.346 -15.616 -21.807  0.00  0.00    -0.058 C 
ATOM     23  C   UNL     1      32.726 -14.694 -22.874  0.00  0.00    -0.021 C 
ATOM     24  C   UNL     1      32.741 -13.225 -22.462  0.00  0.00    -0.004 C 
ATOM     25  C   UNL     1      32.794 -13.984 -20.058  0.00  0.00    -0.077 C 
ATOM     26  C   UNL     1      32.139 -13.047 -21.075  0.00  0.00    -0.023 C 
ATOM     27  C   UNL     1      31.470 -16.002 -20.305  0.00  0.00    -0.101 C 
ATOM     28  H   UNL     1      33.426 -15.879 -19.812  0.00  0.00    -0.080 HD
ENDBRANCH  20  22
ENDBRANCH  19  20
ENDBRANCH   1  19
TORSDOF 6
ENDMDL
MODEL 9
REMARK VINA RESULT:      -8.4      7.081     11.389
REMARK  Name = 48041
REMARK  6 active torsions:
REMARK  status: ('A' for Active; 'I' for Inactive)
REMARK    1  A    between atoms: C_1  and  C_19
REMARK    2  A    between atoms: C_2  and  N_8
REMARK    3  A    between atoms: C_9  and  C_11
REMARK    4  A    between atoms: C_16  and  O_17
REMARK    5  A    between atoms: C_19  and  C_20
REMARK    6  A    between atoms: C_20  and  C_22
REMARK                            x       y       z     vdW  Elec       q    Type
REMARK                         _______ _______ _______ _____ _____    ______ ____
ROOT
ATOM      1  C   UNL     1      34.047 -15.129 -23.895  0.00  0.00    -0.009 C 
ATOM      2  C   UNL     1      33.205 -14.076 -24.225  0.00  0.00    +0.046 C 
ATOM      3  C   UNL     1      34.287 -16.159 -24.794  0.00  0.00    -0.003 C 
ATOM      4  C   UNL     1      32.591 -14.053 -25.478  0.00  0.00    +0.014 C 
ATOM      5  C   UNL     1      33.674 -16.135 -26.046  0.00  0.00    -0.000 C 
ATOM      6  C   UNL     1      32.825 -15.083 -26.388  0.00  0.00    +0.001 C 
ENDROOT
BRANCH   2   8
ATOM      7  O   UNL     1      31.656 -14.061 -21.657  0.00  0.00    -0.270 OA
ATOM      8  N   UNL     1      32.956 -13.035 -23.326  0.00  0.00    -0.281 N 
ATOM      9  C   UNL     1      32.221 -13.082 -22.135  0.00  0.00    +0.249 C 
ATOM     10  H   UNL     1      33.343 -12.160 -23.560  0.00  0.00    +0.155 HD
BRANCH   9  11
ATOM     11  C   UNL     1      32.109 -11.793 -21.405  0.00  0.00    +0.054 C 
ATOM     12  C   UNL     1      32.213 -10.616 -22.116  0.00  0.00    +0.008 C 
ATOM     13  C   UNL     1      31.904 -11.815 -20.041  0.00  0.00    +0.008 C 
ATOM     14  C   UNL     1      32.107  -9.405 -21.432  0.00  0.00    +0.037 C 
ATOM     15  C   UNL     1      31.798 -10.603 -19.357  0.00  0.00    +0.037 C 
ATOM     16  C   UNL     1      31.899  -9.399 -20.053  0.00  0.00    +0.139 C 
BRANCH  16  17
ATOM     17  O   UNL     1      31.794  -8.217 -19.386  0.00  0.00    -0.471 OA
ATOM     18  C   UNL     1      32.304  -7.056 -20.041  0.00  0.00    +0.252 C 
ENDBRANCH  16  17
ENDBRANCH   9  11
ENDBRANCH   2   8
BRANCH   1  19
ATOM     19  C   UNL     1      34.724 -15.180 -22.549  0.00  0.00    +0.026 C 
BRANCH  19  20
ATOM     20  C   UNL     1      34.387 -16.469 -21.811  0.00  0.00    -0.016 C 
BRANCH  20  22
ATOM     21  N   UNL     1      35.526 -18.365 -20.714  0.00  0.00    +0.387 N 
ATOM     22  C   UNL     1      35.555 -17.462 -21.881  0.00  0.00    -0.058 C 
ATOM     23  C   UNL     1      35.581 -18.206 -23.229  0.00  0.00    -0.021 C 
ATOM     24  C   UNL     1      34.490 -19.268 -23.336  0.00  0.00    -0.004 C 
ATOM     25  C   UNL     1      34.485 -19.399 -20.818  0.00  0.00    -0.077 C 
ATOM     26  C   UNL     1      34.515 -20.191 -22.126  0.00  0.00    -0.023 C 
ATOM     27  C   UNL     1      36.841 -18.949 -20.446  0.00  0.00    -0.101 C 
ATOM     28  H   UNL     1      35.277 -17.784 -19.913  0.00  0.00    -0.080 HD
ENDBRANCH  20  22
ENDBRANCH  19  20
ENDBRANCH   1  19
TORSDOF 6
ENDMDL
