MODEL 1
REMARK VINA RESULT:      -4.7      0.000      0.000
REMARK  Name = 439407
REMARK  2 active torsions:
REMARK  status: ('A' for Active; 'I' for Inactive)
REMARK    1  A    between atoms: C_3  and  O_7
REMARK    2  A    between atoms: C_4  and  O_9
REMARK                            x       y       z     vdW  Elec       q    Type
REMARK                         _______ _______ _______ _____ _____    ______ ____
ROOT
ATOM      1  S   UNL     1      37.035 -25.109 -14.877  0.00  0.00    -0.079 S 
ATOM      2  S   UNL     1      36.712 -23.180 -14.275  0.00  0.00    -0.079 S 
ATOM      3  C   UNL     1      37.897 -25.506 -12.255  0.00  0.00    +0.150 C 
ATOM      4  C   UNL     1      37.463 -24.117 -11.758  0.00  0.00    +0.150 C 
ATOM      5  C   UNL     1      38.352 -25.586 -13.719  0.00  0.00    +0.100 C 
ATOM      6  C   UNL     1      36.308 -23.458 -12.526  0.00  0.00    +0.100 C 
ENDROOT
BRANCH   3   7
ATOM      7  O   UNL     1      36.837 -26.432 -12.018  0.00  0.00    -0.381 OA
ATOM      8  H   UNL     1      37.165 -27.167 -11.477  0.00  0.00    +0.210 HD
ENDBRANCH   3   7
BRANCH   4   9
ATOM      9  O   UNL     1      38.601 -23.255 -11.748  0.00  0.00    -0.381 OA
ATOM     10  H   UNL     1      38.343 -22.384 -11.411  0.00  0.00    +0.210 HD
ENDBRANCH   4   9
TORSDOF 2
ENDMDL
MODEL 2
REMARK VINA RESULT:      -4.7      0.031      2.737
REMARK  Name = 439407
REMARK  2 active torsions:
REMARK  status: ('A' for Active; 'I' for Inactive)
REMARK    1  A    between atoms: C_3  and  O_7
REMARK    2  A    between atoms: C_4  and  O_9
REMARK                            x       y       z     vdW  Elec       q    Type
REMARK                         _______ _______ _______ _____ _____    ______ ____
ROOT
ATOM      1  S   UNL     1      36.700 -23.212 -14.263  0.00  0.00    -0.079 S 
ATOM      2  S   UNL     1      37.031 -25.140 -14.864  0.00  0.00    -0.079 S 
ATOM      3  C   UNL     1      37.460 -24.143 -11.746  0.00  0.00    +0.150 C 
ATOM      4  C   UNL     1      37.899 -25.531 -12.243  0.00  0.00    +0.150 C 
ATOM      5  C   UNL     1      36.300 -23.491 -12.512  0.00  0.00    +0.100 C 
ATOM      6  C   UNL     1      38.352 -25.609 -13.708  0.00  0.00    +0.100 C 
ENDROOT
BRANCH   3   7
ATOM      7  O   UNL     1      38.593 -23.276 -11.738  0.00  0.00    -0.381 OA
ATOM      8  H   UNL     1      38.303 -22.364 -11.897  0.00  0.00    +0.210 HD
ENDBRANCH   3   7
BRANCH   4   9
ATOM      9  O   UNL     1      36.844 -26.461 -12.003  0.00  0.00    -0.381 OA
ATOM     10  H   UNL     1      36.494 -26.778 -12.850  0.00  0.00    +0.210 HD
ENDBRANCH   4   9
TORSDOF 2
ENDMDL
MODEL 3
REMARK VINA RESULT:      -4.4      2.201      3.124
REMARK  Name = 439407
REMARK  2 active torsions:
REMARK  status: ('A' for Active; 'I' for Inactive)
REMARK    1  A    between atoms: C_3  and  O_7
REMARK    2  A    between atoms: C_4  and  O_9
REMARK                            x       y       z     vdW  Elec       q    Type
REMARK                         _______ _______ _______ _____ _____    ______ ____
ROOT
ATOM      1  S   UNL     1      37.248 -23.586 -15.133  0.00  0.00    -0.079 S 
ATOM      2  S   UNL     1      35.582 -24.761 -14.955  0.00  0.00    -0.079 S 
ATOM      3  C   UNL     1      38.612 -25.835 -14.206  0.00  0.00    +0.150 C 
ATOM      4  C   UNL     1      37.392 -26.769 -14.269  0.00  0.00    +0.150 C 
ATOM      5  C   UNL     1      38.317 -24.362 -13.886  0.00  0.00    +0.100 C 
ATOM      6  C   UNL     1      36.308 -26.393 -15.290  0.00  0.00    +0.100 C 
ENDROOT
BRANCH   3   7
ATOM      7  O   UNL     1      39.334 -25.936 -15.434  0.00  0.00    -0.381 OA
ATOM      8  H   UNL     1      39.259 -25.101 -15.922  0.00  0.00    +0.210 HD
ENDBRANCH   3   7
BRANCH   4   9
ATOM      9  O   UNL     1      36.824 -26.872 -12.964  0.00  0.00    -0.381 OA
ATOM     10  H   UNL     1      37.519 -26.756 -12.299  0.00  0.00    +0.210 HD
ENDBRANCH   4   9
TORSDOF 2
ENDMDL
MODEL 4
REMARK VINA RESULT:      -4.4      1.945      2.812
REMARK  Name = 439407
REMARK  2 active torsions:
REMARK  status: ('A' for Active; 'I' for Inactive)
REMARK    1  A    between atoms: C_3  and  O_7
REMARK    2  A    between atoms: C_4  and  O_9
REMARK                            x       y       z     vdW  Elec       q    Type
REMARK                         _______ _______ _______ _____ _____    ______ ____
ROOT
ATOM      1  S   UNL     1      35.844 -24.616 -12.679  0.00  0.00    -0.079 S 
ATOM      2  S   UNL     1      35.721 -24.457 -14.715  0.00  0.00    -0.079 S 
ATOM      3  C   UNL     1      38.512 -25.272 -13.153  0.00  0.00    +0.150 C 
ATOM      4  C   UNL     1      38.464 -24.955 -14.657  0.00  0.00    +0.150 C 
ATOM      5  C   UNL     1      37.211 -25.804 -12.535  0.00  0.00    +0.100 C 
ATOM      6  C   UNL     1      37.415 -23.922 -15.093  0.00  0.00    +0.100 C 
ENDROOT
BRANCH   3   7
ATOM      7  O   UNL     1      38.951 -24.110 -12.450  0.00  0.00    -0.381 OA
ATOM      8  H   UNL     1      39.542 -24.374 -11.727  0.00  0.00    +0.210 HD
ENDBRANCH   3   7
BRANCH   4   9
ATOM      9  O   UNL     1      38.286 -26.172 -15.379  0.00  0.00    -0.381 OA
ATOM     10  H   UNL     1      37.366 -26.466 -15.296  0.00  0.00    +0.210 HD
ENDBRANCH   4   9
TORSDOF 2
ENDMDL
MODEL 5
REMARK VINA RESULT:      -4.4      2.816      3.154
REMARK  Name = 439407
REMARK  2 active torsions:
REMARK  status: ('A' for Active; 'I' for Inactive)
REMARK    1  A    between atoms: C_3  and  O_7
REMARK    2  A    between atoms: C_4  and  O_9
REMARK                            x       y       z     vdW  Elec       q    Type
REMARK                         _______ _______ _______ _____ _____    ______ ____
ROOT
ATOM      1  S   UNL     1      38.395 -25.146 -13.072  0.00  0.00    -0.079 S 
ATOM      2  S   UNL     1      37.128 -23.548 -13.234  0.00  0.00    -0.079 S 
ATOM      3  C   UNL     1      36.624 -26.396 -14.826  0.00  0.00    +0.150 C 
ATOM      4  C   UNL     1      35.792 -25.132 -15.101  0.00  0.00    +0.150 C 
ATOM      5  C   UNL     1      37.240 -26.504 -13.423  0.00  0.00    +0.100 C 
ATOM      6  C   UNL     1      36.526 -23.793 -14.931  0.00  0.00    +0.100 C 
ENDROOT
BRANCH   3   7
ATOM      7  O   UNL     1      37.642 -26.503 -15.820  0.00  0.00    -0.381 OA
ATOM      8  H   UNL     1      37.684 -27.418 -16.142  0.00  0.00    +0.210 HD
ENDBRANCH   3   7
BRANCH   4   9
ATOM      9  O   UNL     1      34.625 -25.160 -14.282  0.00  0.00    -0.381 OA
ATOM     10  H   UNL     1      34.282 -26.066 -14.239  0.00  0.00    +0.210 HD
ENDBRANCH   4   9
TORSDOF 2
ENDMDL
MODEL 6
REMARK VINA RESULT:      -4.4      2.112      2.615
REMARK  Name = 439407
REMARK  2 active torsions:
REMARK  status: ('A' for Active; 'I' for Inactive)
REMARK    1  A    between atoms: C_3  and  O_7
REMARK    2  A    between atoms: C_4  and  O_9
REMARK                            x       y       z     vdW  Elec       q    Type
REMARK                         _______ _______ _______ _____ _____    ______ ____
ROOT
ATOM      1  S   UNL     1      35.410 -24.480 -14.242  0.00  0.00    -0.079 S 
ATOM      2  S   UNL     1      36.072 -24.757 -12.326  0.00  0.00    -0.079 S 
ATOM      3  C   UNL     1      37.999 -25.224 -14.964  0.00  0.00    +0.150 C 
ATOM      4  C   UNL     1      38.426 -25.624 -13.543  0.00  0.00    +0.150 C 
ATOM      5  C   UNL     1      36.980 -24.079 -15.064  0.00  0.00    +0.100 C 
ATOM      6  C   UNL     1      37.298 -26.069 -12.601  0.00  0.00    +0.100 C 
ENDROOT
BRANCH   3   7
ATOM      7  O   UNL     1      37.506 -26.380 -15.641  0.00  0.00    -0.381 OA
ATOM      8  H   UNL     1      36.536 -26.359 -15.654  0.00  0.00    +0.210 HD
ENDBRANCH   3   7
BRANCH   4   9
ATOM      9  O   UNL     1      39.156 -24.545 -12.960  0.00  0.00    -0.381 OA
ATOM     10  H   UNL     1      40.106 -24.687 -13.094  0.00  0.00    +0.210 HD
ENDBRANCH   4   9
TORSDOF 2
ENDMDL
MODEL 7
REMARK VINA RESULT:      -4.2      1.679      1.806
REMARK  Name = 439407
REMARK  2 active torsions:
REMARK  status: ('A' for Active; 'I' for Inactive)
REMARK    1  A    between atoms: C_3  and  O_7
REMARK    2  A    between atoms: C_4  and  O_9
REMARK                            x       y       z     vdW  Elec       q    Type
REMARK                         _______ _______ _______ _____ _____    ______ ____
ROOT
ATOM      1  S   UNL     1      38.597 -24.945 -14.523  0.00  0.00    -0.079 S 
ATOM      2  S   UNL     1      37.096 -23.738 -15.215  0.00  0.00    -0.079 S 
ATOM      3  C   UNL     1      36.918 -25.335 -12.331  0.00  0.00    +0.150 C 
ATOM      4  C   UNL     1      35.718 -24.595 -12.947  0.00  0.00    +0.150 C 
ATOM      5  C   UNL     1      38.306 -24.818 -12.734  0.00  0.00    +0.100 C 
ATOM      6  C   UNL     1      35.658 -24.571 -14.481  0.00  0.00    +0.100 C 
ENDROOT
BRANCH   3   7
ATOM      7  O   UNL     1      36.805 -26.725 -12.631  0.00  0.00    -0.381 OA
ATOM      8  H   UNL     1      36.908 -26.859 -13.587  0.00  0.00    +0.210 HD
ENDBRANCH   3   7
BRANCH   4   9
ATOM      9  O   UNL     1      35.684 -23.265 -12.433  0.00  0.00    -0.381 OA
ATOM     10  H   UNL     1      35.759 -23.290 -11.466  0.00  0.00    +0.210 HD
ENDBRANCH   4   9
TORSDOF 2
ENDMDL
MODEL 8
REMARK VINA RESULT:      -4.2      2.657      3.008
REMARK  Name = 439407
REMARK  2 active torsions:
REMARK  status: ('A' for Active; 'I' for Inactive)
REMARK    1  A    between atoms: C_3  and  O_7
REMARK    2  A    between atoms: C_4  and  O_9
REMARK                            x       y       z     vdW  Elec       q    Type
REMARK                         _______ _______ _______ _____ _____    ______ ____
ROOT
ATOM      1  S   UNL     1      37.342 -26.208 -13.417  0.00  0.00    -0.079 S 
ATOM      2  S   UNL     1      36.473 -24.916 -12.090  0.00  0.00    -0.079 S 
ATOM      3  C   UNL     1      37.139 -24.085 -15.214  0.00  0.00    +0.150 C 
ATOM      4  C   UNL     1      36.677 -23.062 -14.163  0.00  0.00    +0.150 C 
ATOM      5  C   UNL     1      36.699 -25.538 -14.979  0.00  0.00    +0.100 C 
ATOM      6  C   UNL     1      37.116 -23.337 -12.717  0.00  0.00    +0.100 C 
ENDROOT
BRANCH   3   7
ATOM      7  O   UNL     1      38.559 -24.015 -15.333  0.00  0.00    -0.381 OA
ATOM      8  H   UNL     1      38.821 -24.258 -16.235  0.00  0.00    +0.210 HD
ENDBRANCH   3   7
BRANCH   4   9
ATOM      9  O   UNL     1      35.257 -22.942 -14.231  0.00  0.00    -0.381 OA
ATOM     10  H   UNL     1      34.850 -23.548 -13.593  0.00  0.00    +0.210 HD
ENDBRANCH   4   9
TORSDOF 2
ENDMDL
MODEL 9
REMARK VINA RESULT:      -4.1      2.721      3.701
REMARK  Name = 439407
REMARK  2 active torsions:
REMARK  status: ('A' for Active; 'I' for Inactive)
REMARK    1  A    between atoms: C_3  and  O_7
REMARK    2  A    between atoms: C_4  and  O_9
REMARK                            x       y       z     vdW  Elec       q    Type
REMARK                         _______ _______ _______ _____ _____    ______ ____
ROOT
ATOM      1  S   UNL     1      37.579 -23.535 -14.392  0.00  0.00    -0.079 S 
ATOM      2  S   UNL     1      38.770 -25.199 -14.398  0.00  0.00    -0.079 S 
ATOM      3  C   UNL     1      35.538 -25.315 -15.059  0.00  0.00    +0.150 C 
ATOM      4  C   UNL     1      36.392 -26.579 -14.862  0.00  0.00    +0.150 C 
ATOM      5  C   UNL     1      36.286 -24.068 -15.552  0.00  0.00    +0.100 C 
ATOM      6  C   UNL     1      37.563 -26.454 -13.878  0.00  0.00    +0.100 C 
ENDROOT
BRANCH   3   7
ATOM      7  O   UNL     1      34.853 -25.027 -13.840  0.00  0.00    -0.381 OA
ATOM      8  H   UNL     1      33.900 -24.969 -14.012  0.00  0.00    +0.210 HD
ENDBRANCH   3   7
BRANCH   4   9
ATOM      9  O   UNL     1      36.864 -27.018 -16.135  0.00  0.00    -0.381 OA
ATOM     10  H   UNL     1      37.264 -26.272 -16.607  0.00  0.00    +0.210 HD
ENDBRANCH   4   9
TORSDOF 2
ENDMDL
