MODEL 1
REMARK VINA RESULT:      -6.2      0.000      0.000
REMARK  Name = 5288374
REMARK  5 active torsions:
REMARK  status: ('A' for Active; 'I' for Inactive)
REMARK    1  A    between atoms: C_2  and  O_11
REMARK    2  A    between atoms: C_4  and  N_7
REMARK    3  A    between atoms: C_5  and  C_15
REMARK    4  A    between atoms: C_6  and  O_13
REMARK    5  A    between atoms: C_15  and  O_16
REMARK                            x       y       z     vdW  Elec       q    Type
REMARK                         _______ _______ _______ _____ _____    ______ ____
ROOT
ATOM      1  O   UNL     1      39.274 -24.490 -13.025  0.00  0.00    -0.330 OA
ATOM      2  C   UNL     1      37.943 -25.323 -14.896  0.00  0.00    +0.138 C 
ATOM      3  C   UNL     1      36.669 -24.842 -14.202  0.00  0.00    +0.015 C 
ATOM      4  C   UNL     1      36.996 -23.683 -13.259  0.00  0.00    -0.006 C 
ATOM      5  C   UNL     1      39.042 -25.622 -13.870  0.00  0.00    +0.173 C 
ATOM      6  C   UNL     1      38.117 -24.077 -12.288  0.00  0.00    +0.211 C 
ENDROOT
BRANCH   4   7
ATOM      7  N   UNL     1      35.796 -23.258 -12.542  0.00  0.00    +0.385 N 
ATOM      8  H   UNL     1      35.729 -23.769 -11.662  0.00  0.00    -0.089 HD
ATOM      9  H   UNL     1      34.972 -23.453 -13.112  0.00  0.00    -0.089 HD
ATOM     10  H   UNL     1      35.850 -22.258 -12.352  0.00  0.00    -0.089 HD
ENDBRANCH   4   7
BRANCH   2  11
ATOM     11  O   UNL     1      37.658 -26.494 -15.651  0.00  0.00    -0.382 OA
ATOM     12  H   UNL     1      36.825 -26.884 -15.343  0.00  0.00    +0.210 HD
ENDBRANCH   2  11
BRANCH   6  13
ATOM     13  O   UNL     1      37.675 -25.091 -11.387  0.00  0.00    -0.362 OA
ATOM     14  H   UNL     1      37.837 -24.805 -10.474  0.00  0.00    +0.213 HD
ENDBRANCH   6  13
BRANCH   5  15
ATOM     15  C   UNL     1      40.366 -25.962 -14.551  0.00  0.00    +0.169 C 
BRANCH  15  16
ATOM     16  O   UNL     1      40.233 -25.716 -15.938  0.00  0.00    -0.379 OA
ATOM     17  H   UNL     1      39.615 -24.982 -16.078  0.00  0.00    +0.211 HD
ENDBRANCH  15  16
ENDBRANCH   5  15
TORSDOF 5
ENDMDL
MODEL 2
REMARK VINA RESULT:      -6.0      1.618      1.743
REMARK  Name = 5288374
REMARK  5 active torsions:
REMARK  status: ('A' for Active; 'I' for Inactive)
REMARK    1  A    between atoms: C_2  and  O_11
REMARK    2  A    between atoms: C_4  and  N_7
REMARK    3  A    between atoms: C_5  and  C_15
REMARK    4  A    between atoms: C_6  and  O_13
REMARK    5  A    between atoms: C_15  and  O_16
REMARK                            x       y       z     vdW  Elec       q    Type
REMARK                         _______ _______ _______ _____ _____    ______ ____
ROOT
ATOM      1  O   UNL     1      38.753 -26.112 -13.081  0.00  0.00    -0.330 OA
ATOM      2  C   UNL     1      38.301 -24.163 -14.482  0.00  0.00    +0.138 C 
ATOM      3  C   UNL     1      36.849 -24.159 -14.005  0.00  0.00    +0.015 C 
ATOM      4  C   UNL     1      36.752 -24.814 -12.627  0.00  0.00    -0.006 C 
ATOM      5  C   UNL     1      38.898 -25.573 -14.399  0.00  0.00    +0.173 C 
ATOM      6  C   UNL     1      37.391 -26.209 -12.646  0.00  0.00    +0.211 C 
ENDROOT
BRANCH   4   7
ATOM      7  N   UNL     1      35.359 -24.873 -12.191  0.00  0.00    +0.385 N 
ATOM      8  H   UNL     1      35.325 -25.017 -11.182  0.00  0.00    -0.089 HD
ATOM      9  H   UNL     1      34.888 -25.647 -12.661  0.00  0.00    -0.089 HD
ATOM     10  H   UNL     1      34.892 -23.998 -12.425  0.00  0.00    -0.089 HD
ENDBRANCH   4   7
BRANCH   2  11
ATOM     11  O   UNL     1      38.362 -23.693 -15.822  0.00  0.00    -0.382 OA
ATOM     12  H   UNL     1      37.652 -24.102 -16.342  0.00  0.00    +0.210 HD
ENDBRANCH   2  11
BRANCH   6  13
ATOM     13  O   UNL     1      36.637 -27.101 -13.465  0.00  0.00    -0.362 OA
ATOM     14  H   UNL     1      36.748 -28.009 -13.141  0.00  0.00    +0.213 HD
ENDBRANCH   6  13
BRANCH   5  15
ATOM     15  C   UNL     1      40.388 -25.572 -14.730  0.00  0.00    +0.169 C 
BRANCH  15  16
ATOM     16  O   UNL     1      40.547 -25.948 -16.086  0.00  0.00    -0.379 OA
ATOM     17  H   UNL     1      39.798 -26.502 -16.357  0.00  0.00    +0.211 HD
ENDBRANCH  15  16
ENDBRANCH   5  15
TORSDOF 5
ENDMDL
MODEL 3
REMARK VINA RESULT:      -5.7      1.076      1.076
REMARK  Name = 5288374
REMARK  5 active torsions:
REMARK  status: ('A' for Active; 'I' for Inactive)
REMARK    1  A    between atoms: C_2  and  O_11
REMARK    2  A    between atoms: C_4  and  N_7
REMARK    3  A    between atoms: C_5  and  C_15
REMARK    4  A    between atoms: C_6  and  O_13
REMARK    5  A    between atoms: C_15  and  O_16
REMARK                            x       y       z     vdW  Elec       q    Type
REMARK                         _______ _______ _______ _____ _____    ______ ____
ROOT
ATOM      1  O   UNL     1      38.220 -24.507 -12.588  0.00  0.00    -0.330 OA
ATOM      2  C   UNL     1      37.482 -25.216 -14.806  0.00  0.00    +0.138 C 
ATOM      3  C   UNL     1      36.028 -24.988 -14.393  0.00  0.00    +0.015 C 
ATOM      4  C   UNL     1      35.961 -23.944 -13.278  0.00  0.00    -0.006 C 
ATOM      5  C   UNL     1      38.353 -25.528 -13.583  0.00  0.00    +0.173 C 
ATOM      6  C   UNL     1      36.878 -24.339 -12.113  0.00  0.00    +0.211 C 
ENDROOT
BRANCH   4   7
ATOM      7  N   UNL     1      34.581 -23.767 -12.832  0.00  0.00    +0.385 N 
ATOM      8  H   UNL     1      33.947 -23.939 -13.612  0.00  0.00    -0.089 HD
ATOM      9  H   UNL     1      34.453 -22.813 -12.493  0.00  0.00    -0.089 HD
ATOM     10  H   UNL     1      34.381 -24.425 -12.079  0.00  0.00    -0.089 HD
ENDBRANCH   4   7
BRANCH   2  11
ATOM     11  O   UNL     1      37.549 -26.293 -15.732  0.00  0.00    -0.382 OA
ATOM     12  H   UNL     1      37.107 -26.040 -16.557  0.00  0.00    +0.210 HD
ENDBRANCH   2  11
BRANCH   6  13
ATOM     13  O   UNL     1      36.397 -25.514 -11.464  0.00  0.00    -0.362 OA
ATOM     14  H   UNL     1      35.784 -25.981 -12.053  0.00  0.00    +0.213 HD
ENDBRANCH   6  13
BRANCH   5  15
ATOM     15  C   UNL     1      39.831 -25.613 -13.955  0.00  0.00    +0.169 C 
BRANCH  15  16
ATOM     16  O   UNL     1      40.051 -26.829 -14.645  0.00  0.00    -0.379 OA
ATOM     17  H   UNL     1      39.681 -26.764 -15.540  0.00  0.00    +0.211 HD
ENDBRANCH  15  16
ENDBRANCH   5  15
TORSDOF 5
ENDMDL
MODEL 4
REMARK VINA RESULT:      -5.7      2.418      4.285
REMARK  Name = 5288374
REMARK  5 active torsions:
REMARK  status: ('A' for Active; 'I' for Inactive)
REMARK    1  A    between atoms: C_2  and  O_11
REMARK    2  A    between atoms: C_4  and  N_7
REMARK    3  A    between atoms: C_5  and  C_15
REMARK    4  A    between atoms: C_6  and  O_13
REMARK    5  A    between atoms: C_15  and  O_16
REMARK                            x       y       z     vdW  Elec       q    Type
REMARK                         _______ _______ _______ _____ _____    ______ ____
ROOT
ATOM      1  O   UNL     1      36.901 -24.425 -14.716  0.00  0.00    -0.330 OA
ATOM      2  C   UNL     1      36.895 -24.983 -12.338  0.00  0.00    +0.138 C 
ATOM      3  C   UNL     1      38.178 -25.791 -12.525  0.00  0.00    +0.015 C 
ATOM      4  C   UNL     1      38.957 -25.259 -13.729  0.00  0.00    -0.006 C 
ATOM      5  C   UNL     1      36.093 -24.923 -13.644  0.00  0.00    +0.173 C 
ATOM      6  C   UNL     1      38.063 -25.222 -14.976  0.00  0.00    +0.211 C 
ENDROOT
BRANCH   4   7
ATOM      7  N   UNL     1      40.153 -26.067 -13.956  0.00  0.00    +0.385 N 
ATOM      8  H   UNL     1      40.673 -26.157 -13.083  0.00  0.00    -0.089 HD
ATOM      9  H   UNL     1      40.741 -25.614 -14.657  0.00  0.00    -0.089 HD
ATOM     10  H   UNL     1      39.881 -26.992 -14.286  0.00  0.00    -0.089 HD
ENDBRANCH   4   7
BRANCH   2  11
ATOM     11  O   UNL     1      36.104 -25.577 -11.316  0.00  0.00    -0.382 OA
ATOM     12  H   UNL     1      36.656 -26.172 -10.784  0.00  0.00    +0.210 HD
ENDBRANCH   2  11
BRANCH   6  13
ATOM     13  O   UNL     1      37.717 -26.542 -15.392  0.00  0.00    -0.362 OA
ATOM     14  H   UNL     1      37.056 -26.495 -16.100  0.00  0.00    +0.213 HD
ENDBRANCH   6  13
BRANCH   5  15
ATOM     15  C   UNL     1      34.885 -23.999 -13.517  0.00  0.00    +0.169 C 
BRANCH  15  16
ATOM     16  O   UNL     1      33.858 -24.693 -12.834  0.00  0.00    -0.379 OA
ATOM     17  H   UNL     1      34.237 -25.169 -12.079  0.00  0.00    +0.211 HD
ENDBRANCH  15  16
ENDBRANCH   5  15
TORSDOF 5
ENDMDL
MODEL 5
REMARK VINA RESULT:      -5.5      1.988      2.194
REMARK  Name = 5288374
REMARK  5 active torsions:
REMARK  status: ('A' for Active; 'I' for Inactive)
REMARK    1  A    between atoms: C_2  and  O_11
REMARK    2  A    between atoms: C_4  and  N_7
REMARK    3  A    between atoms: C_5  and  C_15
REMARK    4  A    between atoms: C_6  and  O_13
REMARK    5  A    between atoms: C_15  and  O_16
REMARK                            x       y       z     vdW  Elec       q    Type
REMARK                         _______ _______ _______ _____ _____    ______ ____
ROOT
ATOM      1  O   UNL     1      37.764 -26.162 -12.932  0.00  0.00    -0.330 OA
ATOM      2  C   UNL     1      37.346 -24.476 -14.649  0.00  0.00    +0.138 C 
ATOM      3  C   UNL     1      36.941 -23.476 -13.566  0.00  0.00    +0.015 C 
ATOM      4  C   UNL     1      37.618 -23.838 -12.244  0.00  0.00    -0.006 C 
ATOM      5  C   UNL     1      37.105 -25.915 -14.179  0.00  0.00    +0.173 C 
ATOM      6  C   UNL     1      37.330 -25.300 -11.873  0.00  0.00    +0.211 C 
ENDROOT
BRANCH   4   7
ATOM      7  N   UNL     1      37.185 -22.927 -11.186  0.00  0.00    +0.385 N 
ATOM      8  H   UNL     1      37.261 -21.965 -11.516  0.00  0.00    -0.089 HD
ATOM      9  H   UNL     1      37.778 -23.053 -10.365  0.00  0.00    -0.089 HD
ATOM     10  H   UNL     1      36.216 -23.127 -10.941  0.00  0.00    -0.089 HD
ENDBRANCH   4   7
BRANCH   2  11
ATOM     11  O   UNL     1      36.598 -24.224 -15.831  0.00  0.00    -0.382 OA
ATOM     12  H   UNL     1      37.196 -23.931 -16.537  0.00  0.00    +0.210 HD
ENDBRANCH   2  11
BRANCH   6  13
ATOM     13  O   UNL     1      35.948 -25.485 -11.572  0.00  0.00    -0.362 OA
ATOM     14  H   UNL     1      35.425 -25.392 -12.384  0.00  0.00    +0.213 HD
ENDBRANCH   6  13
BRANCH   5  15
ATOM     15  C   UNL     1      37.639 -26.930 -15.186  0.00  0.00    +0.169 C 
BRANCH  15  16
ATOM     16  O   UNL     1      36.678 -27.094 -16.212  0.00  0.00    -0.379 OA
ATOM     17  H   UNL     1      36.923 -26.545 -16.974  0.00  0.00    +0.211 HD
ENDBRANCH  15  16
ENDBRANCH   5  15
TORSDOF 5
ENDMDL
MODEL 6
REMARK VINA RESULT:      -5.4      2.804      3.586
REMARK  Name = 5288374
REMARK  5 active torsions:
REMARK  status: ('A' for Active; 'I' for Inactive)
REMARK    1  A    between atoms: C_2  and  O_11
REMARK    2  A    between atoms: C_4  and  N_7
REMARK    3  A    between atoms: C_5  and  C_15
REMARK    4  A    between atoms: C_6  and  O_13
REMARK    5  A    between atoms: C_15  and  O_16
REMARK                            x       y       z     vdW  Elec       q    Type
REMARK                         _______ _______ _______ _____ _____    ______ ____
ROOT
ATOM      1  O   UNL     1      38.225 -23.636 -14.739  0.00  0.00    -0.330 OA
ATOM      2  C   UNL     1      35.871 -23.870 -15.349  0.00  0.00    +0.138 C 
ATOM      3  C   UNL     1      35.904 -25.333 -14.910  0.00  0.00    +0.015 C 
ATOM      4  C   UNL     1      36.996 -25.537 -13.859  0.00  0.00    -0.006 C 
ATOM      5  C   UNL     1      37.266 -23.398 -15.776  0.00  0.00    +0.173 C 
ATOM      6  C   UNL     1      38.345 -25.017 -14.375  0.00  0.00    +0.211 C 
ENDROOT
BRANCH   4   7
ATOM      7  N   UNL     1      37.079 -26.945 -13.481  0.00  0.00    +0.385 N 
ATOM      8  H   UNL     1      38.038 -27.273 -13.600  0.00  0.00    -0.089 HD
ATOM      9  H   UNL     1      36.456 -27.494 -14.073  0.00  0.00    -0.089 HD
ATOM     10  H   UNL     1      36.803 -27.052 -12.505  0.00  0.00    -0.089 HD
ENDBRANCH   4   7
BRANCH   2  11
ATOM     11  O   UNL     1      34.961 -23.720 -16.431  0.00  0.00    -0.382 OA
ATOM     12  H   UNL     1      34.119 -23.368 -16.101  0.00  0.00    +0.210 HD
ENDBRANCH   2  11
BRANCH   6  13
ATOM     13  O   UNL     1      38.812 -25.812 -15.464  0.00  0.00    -0.362 OA
ATOM     14  H   UNL     1      38.369 -26.674 -15.448  0.00  0.00    +0.213 HD
ENDBRANCH   6  13
BRANCH   5  15
ATOM     15  C   UNL     1      37.283 -21.901 -16.077  0.00  0.00    +0.169 C 
BRANCH  15  16
ATOM     16  O   UNL     1      36.892 -21.710 -17.424  0.00  0.00    -0.379 OA
ATOM     17  H   UNL     1      36.180 -21.051 -17.463  0.00  0.00    +0.211 HD
ENDBRANCH  15  16
ENDBRANCH   5  15
TORSDOF 5
ENDMDL
MODEL 7
REMARK VINA RESULT:      -5.4     14.117     14.774
REMARK  Name = 5288374
REMARK  5 active torsions:
REMARK  status: ('A' for Active; 'I' for Inactive)
REMARK    1  A    between atoms: C_2  and  O_11
REMARK    2  A    between atoms: C_4  and  N_7
REMARK    3  A    between atoms: C_5  and  C_15
REMARK    4  A    between atoms: C_6  and  O_13
REMARK    5  A    between atoms: C_15  and  O_16
REMARK                            x       y       z     vdW  Elec       q    Type
REMARK                         _______ _______ _______ _____ _____    ______ ____
ROOT
ATOM      1  O   UNL     1      32.964 -14.665 -23.749  0.00  0.00    -0.330 OA
ATOM      2  C   UNL     1      34.182 -16.527 -24.757  0.00  0.00    +0.138 C 
ATOM      3  C   UNL     1      34.949 -16.732 -23.451  0.00  0.00    +0.015 C 
ATOM      4  C   UNL     1      34.122 -16.210 -22.276  0.00  0.00    -0.006 C 
ATOM      5  C   UNL     1      33.719 -15.073 -24.896  0.00  0.00    +0.173 C 
ATOM      6  C   UNL     1      33.695 -14.756 -22.520  0.00  0.00    +0.211 C 
ENDROOT
BRANCH   4   7
ATOM      7  N   UNL     1      34.873 -16.341 -21.030  0.00  0.00    +0.385 N 
ATOM      8  H   UNL     1      34.471 -17.091 -20.468  0.00  0.00    -0.089 HD
ATOM      9  H   UNL     1      34.826 -15.463 -20.510  0.00  0.00    -0.089 HD
ATOM     10  H   UNL     1      35.847 -16.559 -21.241  0.00  0.00    -0.089 HD
ENDBRANCH   4   7
BRANCH   2  11
ATOM     11  O   UNL     1      35.016 -16.873 -25.856  0.00  0.00    -0.382 OA
ATOM     12  H   UNL     1      35.865 -16.412 -25.777  0.00  0.00    +0.210 HD
ENDBRANCH   2  11
BRANCH   6  13
ATOM     13  O   UNL     1      34.825 -13.886 -22.511  0.00  0.00    -0.362 OA
ATOM     14  H   UNL     1      34.530 -12.974 -22.365  0.00  0.00    +0.213 HD
ENDBRANCH   6  13
BRANCH   5  15
ATOM     15  C   UNL     1      32.827 -14.882 -26.120  0.00  0.00    +0.169 C 
BRANCH  15  16
ATOM     16  O   UNL     1      33.653 -14.650 -27.246  0.00  0.00    -0.379 OA
ATOM     17  H   UNL     1      33.753 -15.474 -27.748  0.00  0.00    +0.211 HD
ENDBRANCH  15  16
ENDBRANCH   5  15
TORSDOF 5
ENDMDL
MODEL 8
REMARK VINA RESULT:      -5.4      2.343      4.144
REMARK  Name = 5288374
REMARK  5 active torsions:
REMARK  status: ('A' for Active; 'I' for Inactive)
REMARK    1  A    between atoms: C_2  and  O_11
REMARK    2  A    between atoms: C_4  and  N_7
REMARK    3  A    between atoms: C_5  and  C_15
REMARK    4  A    between atoms: C_6  and  O_13
REMARK    5  A    between atoms: C_15  and  O_16
REMARK                            x       y       z     vdW  Elec       q    Type
REMARK                         _______ _______ _______ _____ _____    ______ ____
ROOT
ATOM      1  O   UNL     1      37.602 -25.240 -11.801  0.00  0.00    -0.330 OA
ATOM      2  C   UNL     1      35.486 -24.580 -12.829  0.00  0.00    +0.138 C 
ATOM      3  C   UNL     1      36.048 -24.929 -14.207  0.00  0.00    +0.015 C 
ATOM      4  C   UNL     1      37.148 -25.982 -14.068  0.00  0.00    -0.006 C 
ATOM      5  C   UNL     1      36.613 -24.205 -11.860  0.00  0.00    +0.173 C 
ATOM      6  C   UNL     1      38.215 -25.520 -13.066  0.00  0.00    +0.211 C 
ENDROOT
BRANCH   4   7
ATOM      7  N   UNL     1      37.737 -26.275 -15.373  0.00  0.00    +0.385 N 
ATOM      8  H   UNL     1      38.716 -25.988 -15.376  0.00  0.00    -0.089 HD
ATOM      9  H   UNL     1      37.231 -25.763 -16.097  0.00  0.00    -0.089 HD
ATOM     10  H   UNL     1      37.675 -27.275 -15.557  0.00  0.00    -0.089 HD
ENDBRANCH   4   7
BRANCH   2  11
ATOM     11  O   UNL     1      34.575 -23.495 -12.949  0.00  0.00    -0.382 OA
ATOM     12  H   UNL     1      34.039 -23.609 -13.749  0.00  0.00    +0.210 HD
ENDBRANCH   2  11
BRANCH   6  13
ATOM     13  O   UNL     1      38.929 -24.392 -13.568  0.00  0.00    -0.362 OA
ATOM     14  H   UNL     1      38.491 -24.062 -14.368  0.00  0.00    +0.213 HD
ENDBRANCH   6  13
BRANCH   5  15
ATOM     15  C   UNL     1      36.087 -23.997 -10.442  0.00  0.00    +0.169 C 
BRANCH  15  16
ATOM     16  O   UNL     1      35.170 -25.034 -10.146  0.00  0.00    -0.379 OA
ATOM     17  H   UNL     1      34.489 -25.069 -10.836  0.00  0.00    +0.211 HD
ENDBRANCH  15  16
ENDBRANCH   5  15
TORSDOF 5
ENDMDL
MODEL 9
REMARK VINA RESULT:      -5.4     12.746     13.424
REMARK  Name = 5288374
REMARK  5 active torsions:
REMARK  status: ('A' for Active; 'I' for Inactive)
REMARK    1  A    between atoms: C_2  and  O_11
REMARK    2  A    between atoms: C_4  and  N_7
REMARK    3  A    between atoms: C_5  and  C_15
REMARK    4  A    between atoms: C_6  and  O_13
REMARK    5  A    between atoms: C_15  and  O_16
REMARK                            x       y       z     vdW  Elec       q    Type
REMARK                         _______ _______ _______ _____ _____    ______ ____
ROOT
ATOM      1  O   UNL     1      33.808 -15.823 -23.740  0.00  0.00    -0.330 OA
ATOM      2  C   UNL     1      34.204 -16.589 -21.454  0.00  0.00    +0.138 C 
ATOM      3  C   UNL     1      33.662 -15.265 -20.918  0.00  0.00    +0.015 C 
ATOM      4  C   UNL     1      32.693 -14.651 -21.929  0.00  0.00    -0.006 C 
ATOM      5  C   UNL     1      34.777 -16.412 -22.865  0.00  0.00    +0.173 C 
ATOM      6  C   UNL     1      33.355 -14.534 -23.308  0.00  0.00    +0.211 C 
ENDROOT
BRANCH   4   7
ATOM      7  N   UNL     1      32.219 -13.353 -21.454  0.00  0.00    +0.385 N 
ATOM      8  H   UNL     1      33.019 -12.765 -21.220  0.00  0.00    -0.089 HD
ATOM      9  H   UNL     1      31.640 -13.485 -20.625  0.00  0.00    -0.089 HD
ATOM     10  H   UNL     1      31.670 -12.904 -22.186  0.00  0.00    -0.089 HD
ENDBRANCH   4   7
BRANCH   2  11
ATOM     11  O   UNL     1      35.216 -17.076 -20.582  0.00  0.00    -0.382 OA
ATOM     12  H   UNL     1      35.535 -17.934 -20.903  0.00  0.00    +0.210 HD
ENDBRANCH   2  11
BRANCH   6  13
ATOM     13  O   UNL     1      34.416 -13.581 -23.283  0.00  0.00    -0.362 OA
ATOM     14  H   UNL     1      34.869 -13.578 -24.140  0.00  0.00    +0.213 HD
ENDBRANCH   6  13
BRANCH   5  15
ATOM     15  C   UNL     1      35.188 -17.749 -23.475  0.00  0.00    +0.169 C 
BRANCH  15  16
ATOM     16  O   UNL     1      36.449 -18.116 -22.946  0.00  0.00    -0.379 OA
ATOM     17  H   UNL     1      36.379 -18.982 -22.515  0.00  0.00    +0.211 HD
ENDBRANCH  15  16
ENDBRANCH   5  15
TORSDOF 5
ENDMDL
