MODEL 1
REMARK VINA RESULT:      -9.4      0.000      0.000
REMARK  Name = 236666
REMARK  1 active torsions:
REMARK  status: ('A' for Active; 'I' for Inactive)
REMARK    1  A    between atoms: C_9  and  O_21
REMARK                            x       y       z     vdW  Elec       q    Type
REMARK                         _______ _______ _______ _____ _____    ______ ____
ROOT
ATOM      1  O   UNL     1      33.853 -19.396 -21.915  0.00  0.00    -0.291 OA
ATOM      2  C   UNL     1      35.826 -22.908 -15.202  0.00  0.00    +0.002 C 
ATOM      3  C   UNL     1      35.812 -22.779 -16.729  0.00  0.00    +0.000 C 
ATOM      4  C   UNL     1      34.800 -23.931 -14.681  0.00  0.00    +0.025 C 
ATOM      5  C   UNL     1      34.386 -22.310 -17.179  0.00  0.00    +0.004 C 
ATOM      6  C   UNL     1      34.309 -22.103 -18.739  0.00  0.00    +0.019 C 
ATOM      7  C   UNL     1      33.400 -23.438 -15.067  0.00  0.00    +0.002 C 
ATOM      8  C   UNL     1      33.275 -23.224 -16.587  0.00  0.00    +0.000 C 
ATOM      9  C   UNL     1      35.116 -23.859 -13.175  0.00  0.00    +0.110 C 
ATOM     10  C   UNL     1      37.120 -23.314 -14.500  0.00  0.00    +0.003 C 
ATOM     11  C   UNL     1      36.904 -21.818 -17.217  0.00  0.00    +0.000 C 
ATOM     12  C   UNL     1      35.436 -21.090 -19.124  0.00  0.00    +0.011 C 
ATOM     13  C   UNL     1      36.655 -23.808 -13.118  0.00  0.00    +0.029 C 
ATOM     14  C   UNL     1      36.831 -21.574 -18.721  0.00  0.00    +0.001 C 
ATOM     15  C   UNL     1      35.002 -25.377 -15.204  0.00  0.00    +0.002 C 
ATOM     16  C   UNL     1      34.441 -23.449 -19.491  0.00  0.00    +0.004 C 
ATOM     17  C   UNL     1      32.985 -21.494 -19.180  0.00  0.00    -0.024 C 
ATOM     18  C   UNL     1      35.385 -20.690 -20.600  0.00  0.00    +0.069 C 
ATOM     19  C   UNL     1      32.844 -20.603 -20.171  0.00  0.00    +0.033 C 
ATOM     20  C   UNL     1      34.017 -20.155 -20.960  0.00  0.00    +0.173 C 
ENDROOT
BRANCH   9  21
ATOM     21  O   UNL     1      34.600 -24.957 -12.447  0.00  0.00    -0.384 OA
ATOM     22  H   UNL     1      34.836 -25.784 -12.898  0.00  0.00    +0.210 HD
ENDBRANCH   9  21
TORSDOF 1
ENDMDL
MODEL 2
REMARK VINA RESULT:      -9.0      3.425      6.117
REMARK  Name = 236666
REMARK  1 active torsions:
REMARK  status: ('A' for Active; 'I' for Inactive)
REMARK    1  A    between atoms: C_9  and  O_21
REMARK                            x       y       z     vdW  Elec       q    Type
REMARK                         _______ _______ _______ _____ _____    ______ ____
ROOT
ATOM      1  O   UNL     1      39.938 -25.556 -14.271  0.00  0.00    -0.291 OA
ATOM      2  C   UNL     1      32.532 -23.631 -15.921  0.00  0.00    +0.002 C 
ATOM      3  C   UNL     1      33.948 -23.328 -15.420  0.00  0.00    +0.000 C 
ATOM      4  C   UNL     1      31.531 -23.865 -14.774  0.00  0.00    +0.025 C 
ATOM      5  C   UNL     1      34.453 -24.547 -14.576  0.00  0.00    +0.004 C 
ATOM      6  C   UNL     1      35.929 -24.330 -14.070  0.00  0.00    +0.019 C 
ATOM      7  C   UNL     1      31.992 -25.097 -13.986  0.00  0.00    +0.002 C 
ATOM      8  C   UNL     1      33.432 -24.930 -13.466  0.00  0.00    +0.000 C 
ATOM      9  C   UNL     1      30.246 -24.070 -15.599  0.00  0.00    +0.110 C 
ATOM     10  C   UNL     1      31.821 -22.613 -16.810  0.00  0.00    +0.003 C 
ATOM     11  C   UNL     1      34.896 -23.015 -16.586  0.00  0.00    +0.000 C 
ATOM     12  C   UNL     1      36.811 -24.052 -15.330  0.00  0.00    +0.011 C 
ATOM     13  C   UNL     1      30.334 -22.996 -16.701  0.00  0.00    +0.029 C 
ATOM     14  C   UNL     1      36.339 -22.834 -16.126  0.00  0.00    +0.001 C 
ATOM     15  C   UNL     1      31.362 -22.665 -13.806  0.00  0.00    +0.002 C 
ATOM     16  C   UNL     1      36.004 -23.186 -13.031  0.00  0.00    +0.004 C 
ATOM     17  C   UNL     1      36.496 -25.567 -13.386  0.00  0.00    -0.024 C 
ATOM     18  C   UNL     1      38.300 -23.961 -14.994  0.00  0.00    +0.069 C 
ATOM     19  C   UNL     1      37.768 -25.978 -13.478  0.00  0.00    +0.033 C 
ATOM     20  C   UNL     1      38.760 -25.204 -14.264  0.00  0.00    +0.173 C 
ENDROOT
BRANCH   9  21
ATOM     21  O   UNL     1      29.067 -23.938 -14.830  0.00  0.00    -0.384 OA
ATOM     22  H   UNL     1      29.088 -23.097 -14.346  0.00  0.00    +0.210 HD
ENDBRANCH   9  21
TORSDOF 1
ENDMDL
MODEL 3
REMARK VINA RESULT:      -7.7      3.079      4.634
REMARK  Name = 236666
REMARK  1 active torsions:
REMARK  status: ('A' for Active; 'I' for Inactive)
REMARK    1  A    between atoms: C_9  and  O_21
REMARK                            x       y       z     vdW  Elec       q    Type
REMARK                         _______ _______ _______ _____ _____    ______ ____
ROOT
ATOM      1  O   UNL     1      27.810 -22.102 -15.996  0.00  0.00    -0.291 OA
ATOM      2  C   UNL     1      35.501 -23.277 -15.123  0.00  0.00    +0.002 C 
ATOM      3  C   UNL     1      34.115 -23.624 -15.679  0.00  0.00    +0.000 C 
ATOM      4  C   UNL     1      35.890 -24.144 -13.910  0.00  0.00    +0.025 C 
ATOM      5  C   UNL     1      33.050 -23.391 -14.553  0.00  0.00    +0.004 C 
ATOM      6  C   UNL     1      31.589 -23.676 -15.069  0.00  0.00    +0.019 C 
ATOM      7  C   UNL     1      34.883 -23.866 -12.786  0.00  0.00    +0.002 C 
ATOM      8  C   UNL     1      33.437 -24.135 -13.243  0.00  0.00    +0.000 C 
ATOM      9  C   UNL     1      37.307 -23.597 -13.655  0.00  0.00    +0.110 C 
ATOM     10  C   UNL     1      36.719 -23.380 -16.038  0.00  0.00    +0.003 C 
ATOM     11  C   UNL     1      33.799 -22.804 -16.937  0.00  0.00    +0.000 C 
ATOM     12  C   UNL     1      31.361 -22.773 -16.324  0.00  0.00    +0.011 C 
ATOM     13  C   UNL     1      37.911 -23.451 -15.065  0.00  0.00    +0.029 C 
ATOM     14  C   UNL     1      32.377 -23.037 -17.437  0.00  0.00    +0.001 C 
ATOM     15  C   UNL     1      35.944 -25.667 -14.192  0.00  0.00    +0.002 C 
ATOM     16  C   UNL     1      31.386 -25.179 -15.377  0.00  0.00    +0.004 C 
ATOM     17  C   UNL     1      30.528 -23.301 -14.044  0.00  0.00    -0.024 C 
ATOM     18  C   UNL     1      29.924 -22.848 -16.846  0.00  0.00    +0.069 C 
ATOM     19  C   UNL     1      29.335 -22.767 -14.337  0.00  0.00    +0.033 C 
ATOM     20  C   UNL     1      28.939 -22.521 -15.745  0.00  0.00    +0.173 C 
ENDROOT
BRANCH   9  21
ATOM     21  O   UNL     1      38.088 -24.444 -12.835  0.00  0.00    -0.384 OA
ATOM     22  H   UNL     1      37.891 -25.370 -13.045  0.00  0.00    +0.210 HD
ENDBRANCH   9  21
TORSDOF 1
ENDMDL
MODEL 4
REMARK VINA RESULT:      -7.5      9.649     13.955
REMARK  Name = 236666
REMARK  1 active torsions:
REMARK  status: ('A' for Active; 'I' for Inactive)
REMARK    1  A    between atoms: C_9  and  O_21
REMARK                            x       y       z     vdW  Elec       q    Type
REMARK                         _______ _______ _______ _____ _____    ______ ____
ROOT
ATOM      1  O   UNL     1      33.921 -16.823 -21.392  0.00  0.00    -0.291 OA
ATOM      2  C   UNL     1      32.677  -9.116 -21.985  0.00  0.00    +0.002 C 
ATOM      3  C   UNL     1      32.240 -10.584 -22.046  0.00  0.00    +0.000 C 
ATOM      4  C   UNL     1      32.958  -8.520 -23.377  0.00  0.00    +0.025 C 
ATOM      5  C   UNL     1      33.386 -11.421 -22.711  0.00  0.00    +0.004 C 
ATOM      6  C   UNL     1      33.031 -12.955 -22.759  0.00  0.00    +0.019 C 
ATOM      7  C   UNL     1      34.122  -9.299 -24.000  0.00  0.00    +0.002 C 
ATOM      8  C   UNL     1      33.820 -10.808 -24.073  0.00  0.00    +0.000 C 
ATOM      9  C   UNL     1      33.296  -7.074 -22.968  0.00  0.00    +0.110 C 
ATOM     10  C   UNL     1      31.750  -8.089 -21.340  0.00  0.00    +0.003 C 
ATOM     11  C   UNL     1      31.885 -11.118 -20.652  0.00  0.00    +0.000 C 
ATOM     12  C   UNL     1      32.719 -13.401 -21.294  0.00  0.00    +0.011 C 
ATOM     13  C   UNL     1      32.253  -6.739 -21.884  0.00  0.00    +0.029 C 
ATOM     14  C   UNL     1      31.569 -12.610 -20.665  0.00  0.00    +0.001 C 
ATOM     15  C   UNL     1      31.748  -8.536 -24.346  0.00  0.00    +0.002 C 
ATOM     16  C   UNL     1      31.852 -13.228 -23.724  0.00  0.00    +0.004 C 
ATOM     17  C   UNL     1      34.194 -13.805 -23.252  0.00  0.00    -0.024 C 
ATOM     18  C   UNL     1      32.492 -14.909 -21.176  0.00  0.00    +0.069 C 
ATOM     19  C   UNL     1      34.499 -15.026 -22.791  0.00  0.00    +0.033 C 
ATOM     20  C   UNL     1      33.669 -15.671 -21.745  0.00  0.00    +0.173 C 
ENDROOT
BRANCH   9  21
ATOM     21  O   UNL     1      33.240  -6.165 -24.049  0.00  0.00    -0.384 OA
ATOM     22  H   UNL     1      32.313  -5.969 -24.260  0.00  0.00    +0.210 HD
ENDBRANCH   9  21
TORSDOF 1
ENDMDL
MODEL 5
REMARK VINA RESULT:      -7.4      3.185      6.356
REMARK  Name = 236666
REMARK  1 active torsions:
REMARK  status: ('A' for Active; 'I' for Inactive)
REMARK    1  A    between atoms: C_9  and  O_21
REMARK                            x       y       z     vdW  Elec       q    Type
REMARK                         _______ _______ _______ _____ _____    ______ ____
ROOT
ATOM      1  O   UNL     1      39.383 -24.295 -13.207  0.00  0.00    -0.291 OA
ATOM      2  C   UNL     1      31.788 -23.062 -14.654  0.00  0.00    +0.002 C 
ATOM      3  C   UNL     1      32.985 -23.936 -14.260  0.00  0.00    +0.000 C 
ATOM      4  C   UNL     1      31.370 -23.252 -16.124  0.00  0.00    +0.025 C 
ATOM      5  C   UNL     1      34.205 -23.552 -15.166  0.00  0.00    +0.004 C 
ATOM      6  C   UNL     1      35.493 -24.374 -14.782  0.00  0.00    +0.019 C 
ATOM      7  C   UNL     1      32.543 -22.816 -17.011  0.00  0.00    +0.002 C 
ATOM      8  C   UNL     1      33.827 -23.597 -16.674  0.00  0.00    +0.000 C 
ATOM      9  C   UNL     1      30.150 -22.313 -16.162  0.00  0.00    +0.110 C 
ATOM     10  C   UNL     1      30.474 -23.209 -13.889  0.00  0.00    +0.003 C 
ATOM     11  C   UNL     1      33.317 -23.786 -12.770  0.00  0.00    +0.000 C 
ATOM     12  C   UNL     1      35.759 -24.128 -13.262  0.00  0.00    +0.011 C 
ATOM     13  C   UNL     1      29.424 -22.589 -14.830  0.00  0.00    +0.029 C 
ATOM     14  C   UNL     1      34.580 -24.545 -12.379  0.00  0.00    +0.001 C 
ATOM     15  C   UNL     1      30.948 -24.697 -16.497  0.00  0.00    +0.002 C 
ATOM     16  C   UNL     1      35.321 -25.875 -15.118  0.00  0.00    +0.004 C 
ATOM     17  C   UNL     1      36.728 -23.904 -15.538  0.00  0.00    -0.024 C 
ATOM     18  C   UNL     1      37.068 -24.760 -12.786  0.00  0.00    +0.069 C 
ATOM     19  C   UNL     1      37.964 -23.846 -15.025  0.00  0.00    +0.033 C 
ATOM     20  C   UNL     1      38.228 -24.284 -13.632  0.00  0.00    +0.173 C 
ENDROOT
BRANCH   9  21
ATOM     21  O   UNL     1      29.308 -22.543 -17.275  0.00  0.00    -0.384 OA
ATOM     22  H   UNL     1      28.607 -23.166 -17.028  0.00  0.00    +0.210 HD
ENDBRANCH   9  21
TORSDOF 1
ENDMDL
MODEL 6
REMARK VINA RESULT:      -7.3      6.163      9.506
REMARK  Name = 236666
REMARK  1 active torsions:
REMARK  status: ('A' for Active; 'I' for Inactive)
REMARK    1  A    between atoms: C_9  and  O_21
REMARK                            x       y       z     vdW  Elec       q    Type
REMARK                         _______ _______ _______ _____ _____    ______ ____
ROOT
ATOM      1  O   UNL     1      33.787 -10.672 -25.918  0.00  0.00    -0.291 OA
ATOM      2  C   UNL     1      34.989 -17.848 -23.029  0.00  0.00    +0.002 C 
ATOM      3  C   UNL     1      34.126 -16.754 -23.666  0.00  0.00    +0.000 C 
ATOM      4  C   UNL     1      34.758 -17.983 -21.512  0.00  0.00    +0.025 C 
ATOM      5  C   UNL     1      34.481 -15.382 -22.996  0.00  0.00    +0.004 C 
ATOM      6  C   UNL     1      33.669 -14.196 -23.640  0.00  0.00    +0.019 C 
ATOM      7  C   UNL     1      35.166 -16.661 -20.851  0.00  0.00    +0.002 C 
ATOM      8  C   UNL     1      34.394 -15.468 -21.446  0.00  0.00    +0.000 C 
ATOM      9  C   UNL     1      35.698 -19.168 -21.219  0.00  0.00    +0.110 C 
ATOM     10  C   UNL     1      34.867 -19.284 -23.536  0.00  0.00    +0.003 C 
ATOM     11  C   UNL     1      34.318 -16.708 -25.188  0.00  0.00    +0.000 C 
ATOM     12  C   UNL     1      33.958 -14.220 -25.175  0.00  0.00    +0.011 C 
ATOM     13  C   UNL     1      35.461 -20.133 -22.397  0.00  0.00    +0.029 C 
ATOM     14  C   UNL     1      33.568 -15.546 -25.831  0.00  0.00    +0.001 C 
ATOM     15  C   UNL     1      33.304 -18.337 -21.107  0.00  0.00    +0.002 C 
ATOM     16  C   UNL     1      32.159 -14.311 -23.320  0.00  0.00    +0.004 C 
ATOM     17  C   UNL     1      34.115 -12.837 -23.117  0.00  0.00    -0.024 C 
ATOM     18  C   UNL     1      33.338 -13.028 -25.907  0.00  0.00    +0.069 C 
ATOM     19  C   UNL     1      34.186 -11.719 -23.854  0.00  0.00    +0.033 C 
ATOM     20  C   UNL     1      33.788 -11.726 -25.282  0.00  0.00    +0.173 C 
ENDROOT
BRANCH   9  21
ATOM     21  O   UNL     1      35.437 -19.786 -19.974  0.00  0.00    -0.384 OA
ATOM     22  H   UNL     1      34.517 -20.095 -19.951  0.00  0.00    +0.210 HD
ENDBRANCH   9  21
TORSDOF 1
ENDMDL
MODEL 7
REMARK VINA RESULT:      -7.0      3.464      5.295
REMARK  Name = 236666
REMARK  1 active torsions:
REMARK  status: ('A' for Active; 'I' for Inactive)
REMARK    1  A    between atoms: C_9  and  O_21
REMARK                            x       y       z     vdW  Elec       q    Type
REMARK                         _______ _______ _______ _____ _____    ______ ____
ROOT
ATOM      1  O   UNL     1      27.687 -23.881 -16.072  0.00  0.00    -0.291 OA
ATOM      2  C   UNL     1      35.311 -24.840 -14.577  0.00  0.00    +0.002 C 
ATOM      3  C   UNL     1      33.900 -24.344 -14.243  0.00  0.00    +0.000 C 
ATOM      4  C   UNL     1      36.223 -23.723 -15.119  0.00  0.00    +0.025 C 
ATOM      5  C   UNL     1      33.247 -23.773 -15.548  0.00  0.00    +0.004 C 
ATOM      6  C   UNL     1      31.769 -23.291 -15.293  0.00  0.00    +0.019 C 
ATOM      7  C   UNL     1      35.616 -23.210 -16.430  0.00  0.00    +0.002 C 
ATOM      8  C   UNL     1      34.168 -22.723 -16.230  0.00  0.00    +0.000 C 
ATOM      9  C   UNL     1      37.529 -24.523 -15.284  0.00  0.00    +0.110 C 
ATOM     10  C   UNL     1      36.155 -25.486 -13.480  0.00  0.00    +0.003 C 
ATOM     11  C   UNL     1      33.049 -25.461 -13.625  0.00  0.00    +0.000 C 
ATOM     12  C   UNL     1      30.986 -24.506 -14.697  0.00  0.00    +0.011 C 
ATOM     13  C   UNL     1      37.596 -25.397 -14.016  0.00  0.00    +0.029 C 
ATOM     14  C   UNL     1      31.604 -25.030 -13.399  0.00  0.00    +0.001 C 
ATOM     15  C   UNL     1      36.440 -22.535 -14.149  0.00  0.00    +0.002 C 
ATOM     16  C   UNL     1      31.735 -22.053 -14.366  0.00  0.00    +0.004 C 
ATOM     17  C   UNL     1      31.061 -22.884 -16.578  0.00  0.00    -0.024 C 
ATOM     18  C   UNL     1      29.493 -24.215 -14.531  0.00  0.00    +0.069 C 
ATOM     19  C   UNL     1      29.765 -23.104 -16.841  0.00  0.00    +0.033 C 
ATOM     20  C   UNL     1      28.889 -23.760 -15.841  0.00  0.00    +0.173 C 
ENDROOT
BRANCH   9  21
ATOM     21  O   UNL     1      38.671 -23.699 -15.414  0.00  0.00    -0.384 OA
ATOM     22  H   UNL     1      39.385 -24.044 -14.856  0.00  0.00    +0.210 HD
ENDBRANCH   9  21
TORSDOF 1
ENDMDL
MODEL 8
REMARK VINA RESULT:      -6.9     11.248     15.301
REMARK  Name = 236666
REMARK  1 active torsions:
REMARK  status: ('A' for Active; 'I' for Inactive)
REMARK    1  A    between atoms: C_9  and  O_21
REMARK                            x       y       z     vdW  Elec       q    Type
REMARK                         _______ _______ _______ _____ _____    ______ ____
ROOT
ATOM      1  O   UNL     1      33.045 -15.052 -20.369  0.00  0.00    -0.291 OA
ATOM      2  C   UNL     1      32.255  -7.396 -21.796  0.00  0.00    +0.002 C 
ATOM      3  C   UNL     1      31.733  -8.771 -21.364  0.00  0.00    +0.000 C 
ATOM      4  C   UNL     1      31.876  -7.043 -23.247  0.00  0.00    +0.025 C 
ATOM      5  C   UNL     1      32.351  -9.859 -22.307  0.00  0.00    +0.004 C 
ATOM      6  C   UNL     1      31.902 -11.310 -21.889  0.00  0.00    +0.019 C 
ATOM      7  C   UNL     1      32.534  -8.073 -24.173  0.00  0.00    +0.002 C 
ATOM      8  C   UNL     1      32.121  -9.510 -23.805  0.00  0.00    +0.000 C 
ATOM      9  C   UNL     1      32.477  -5.627 -23.327  0.00  0.00    +0.110 C 
ATOM     10  C   UNL     1      31.833  -6.157 -21.008  0.00  0.00    +0.003 C 
ATOM     11  C   UNL     1      32.053  -9.050 -19.890  0.00  0.00    +0.000 C 
ATOM     12  C   UNL     1      32.300 -11.501 -20.390  0.00  0.00    +0.011 C 
ATOM     13  C   UNL     1      32.112  -4.989 -21.972  0.00  0.00    +0.029 C 
ATOM     14  C   UNL     1      31.658 -10.461 -19.469  0.00  0.00    +0.001 C 
ATOM     15  C   UNL     1      30.351  -6.996 -23.526  0.00  0.00    +0.002 C 
ATOM     16  C   UNL     1      30.387 -11.520 -22.130  0.00  0.00    +0.004 C 
ATOM     17  C   UNL     1      32.617 -12.392 -22.687  0.00  0.00    -0.024 C 
ATOM     18  C   UNL     1      32.045 -12.925 -19.893  0.00  0.00    +0.069 C 
ATOM     19  C   UNL     1      33.012 -13.573 -22.193  0.00  0.00    +0.033 C 
ATOM     20  C   UNL     1      32.742 -13.933 -20.780  0.00  0.00    +0.173 C 
ENDROOT
BRANCH   9  21
ATOM     21  O   UNL     1      31.976  -4.873 -24.413  0.00  0.00    -0.384 OA
ATOM     22  H   UNL     1      32.717  -4.548 -24.951  0.00  0.00    +0.210 HD
ENDBRANCH   9  21
TORSDOF 1
ENDMDL
MODEL 9
REMARK VINA RESULT:      -6.9     11.031     14.604
REMARK  Name = 236666
REMARK  1 active torsions:
REMARK  status: ('A' for Active; 'I' for Inactive)
REMARK    1  A    between atoms: C_9  and  O_21
REMARK                            x       y       z     vdW  Elec       q    Type
REMARK                         _______ _______ _______ _____ _____    ______ ____
ROOT
ATOM      1  O   UNL     1      31.086  -4.219 -22.758  0.00  0.00    -0.291 OA
ATOM      2  C   UNL     1      32.175 -11.958 -22.302  0.00  0.00    +0.002 C 
ATOM      3  C   UNL     1      32.526 -10.502 -21.975  0.00  0.00    +0.000 C 
ATOM      4  C   UNL     1      33.067 -12.553 -23.408  0.00  0.00    +0.025 C 
ATOM      5  C   UNL     1      32.338  -9.639 -23.269  0.00  0.00    +0.004 C 
ATOM      6  C   UNL     1      32.630  -8.115 -22.996  0.00  0.00    +0.019 C 
ATOM      7  C   UNL     1      32.834 -11.746 -24.691  0.00  0.00    +0.002 C 
ATOM      8  C   UNL     1      33.111 -10.246 -24.474  0.00  0.00    +0.000 C 
ATOM      9  C   UNL     1      32.507 -13.987 -23.438  0.00  0.00    +0.110 C 
ATOM     10  C   UNL     1      32.236 -13.007 -21.194  0.00  0.00    +0.003 C 
ATOM     11  C   UNL     1      31.677  -9.973 -20.812  0.00  0.00    +0.000 C 
ATOM     12  C   UNL     1      31.697  -7.671 -21.823  0.00  0.00    +0.011 C 
ATOM     13  C   UNL     1      32.315 -14.345 -21.951  0.00  0.00    +0.029 C 
ATOM     14  C   UNL     1      31.917  -8.490 -20.549  0.00  0.00    +0.001 C 
ATOM     15  C   UNL     1      34.582 -12.574 -23.077  0.00  0.00    +0.002 C 
ATOM     16  C   UNL     1      34.127  -7.877 -22.683  0.00  0.00    +0.004 C 
ATOM     17  C   UNL     1      32.298  -7.236 -24.194  0.00  0.00    -0.024 C 
ATOM     18  C   UNL     1      31.779  -6.168 -21.546  0.00  0.00    +0.069 C 
ATOM     19  C   UNL     1      31.772  -6.005 -24.119  0.00  0.00    +0.033 C 
ATOM     20  C   UNL     1      31.495  -5.378 -22.805  0.00  0.00    +0.173 C 
ENDROOT
BRANCH   9  21
ATOM     21  O   UNL     1      33.365 -14.903 -24.092  0.00  0.00    -0.384 OA
ATOM     22  H   UNL     1      33.725 -15.528 -23.443  0.00  0.00    +0.210 HD
ENDBRANCH   9  21
TORSDOF 1
ENDMDL
