MODEL 1
REMARK VINA RESULT:      -7.6      0.000      0.000
REMARK  Name = 446806
REMARK  4 active torsions:
REMARK  status: ('A' for Active; 'I' for Inactive)
REMARK    1  A    between atoms: C_4  and  O_9
REMARK    2  A    between atoms: C_6  and  O_13
REMARK    3  A    between atoms: C_8  and  O_11
REMARK    4  A    between atoms: O_13  and  S_14
REMARK                            x       y       z     vdW  Elec       q    Type
REMARK                         _______ _______ _______ _____ _____    ______ ____
ROOT
ATOM      1  O   UNL     1      36.166 -23.187 -13.518  0.00  0.00    -0.348 OA
ATOM      2  O   UNL     1      36.499 -25.829 -11.980  0.00  0.00    -0.326 OA
ATOM      3  C   UNL     1      37.522 -23.495 -13.113  0.00  0.00    +0.179 C 
ATOM      4  C   UNL     1      37.437 -23.661 -11.602  0.00  0.00    +0.170 C 
ATOM      5  C   UNL     1      36.177 -24.495 -11.547  0.00  0.00    +0.176 C 
ATOM      6  C   UNL     1      37.912 -24.835 -13.751  0.00  0.00    +0.232 C 
ATOM      7  C   UNL     1      35.273 -23.767 -12.538  0.00  0.00    +0.174 C 
ATOM      8  C   UNL     1      36.918 -25.942 -13.348  0.00  0.00    +0.265 C 
ENDROOT
BRANCH   4   9
ATOM      9  O   UNL     1      37.274 -22.410 -10.950  0.00  0.00    -0.379 OA
ATOM     10  H   UNL     1      37.319 -21.695 -11.606  0.00  0.00    +0.211 HD
ENDBRANCH   4   9
BRANCH   8  11
ATOM     11  O   UNL     1      37.503 -27.217 -13.600  0.00  0.00    -0.358 OA
ATOM     12  H   UNL     1      37.480 -27.401 -14.552  0.00  0.00    +0.213 HD
ENDBRANCH   8  11
BRANCH   6  13
ATOM     13  O   UNL     1      39.242 -25.170 -13.362  0.00  0.00    -0.195 OA
BRANCH  13  14
ATOM     14  S   UNL     1      40.349 -25.537 -14.504  0.00  0.00    +0.239 S 
ATOM     15  O   UNL     1      41.224 -26.732 -13.820  0.00  0.00    -0.116 OA
ATOM     16  O   UNL     1      39.636 -26.108 -15.632  0.00  0.00    -0.022 OA
ATOM     17  O   UNL     1      41.226 -24.397 -14.697  0.00  0.00    -0.116 OA
ENDBRANCH  13  14
ENDBRANCH   6  13
TORSDOF 4
ENDMDL
MODEL 2
REMARK VINA RESULT:      -7.0      2.891      5.158
REMARK  Name = 446806
REMARK  4 active torsions:
REMARK  status: ('A' for Active; 'I' for Inactive)
REMARK    1  A    between atoms: C_4  and  O_9
REMARK    2  A    between atoms: C_6  and  O_13
REMARK    3  A    between atoms: C_8  and  O_11
REMARK    4  A    between atoms: O_13  and  S_14
REMARK                            x       y       z     vdW  Elec       q    Type
REMARK                         _______ _______ _______ _____ _____    ______ ____
ROOT
ATOM      1  O   UNL     1      37.946 -23.896 -13.962  0.00  0.00    -0.348 OA
ATOM      2  O   UNL     1      36.855 -26.013 -12.016  0.00  0.00    -0.326 OA
ATOM      3  C   UNL     1      36.767 -24.601 -14.420  0.00  0.00    +0.179 C 
ATOM      4  C   UNL     1      37.167 -26.070 -14.387  0.00  0.00    +0.170 C 
ATOM      5  C   UNL     1      37.860 -26.075 -13.044  0.00  0.00    +0.176 C 
ATOM      6  C   UNL     1      35.646 -24.356 -13.400  0.00  0.00    +0.232 C 
ATOM      7  C   UNL     1      38.696 -24.799 -13.114  0.00  0.00    +0.174 C 
ATOM      8  C   UNL     1      36.082 -24.804 -11.991  0.00  0.00    +0.265 C 
ENDROOT
BRANCH   4   9
ATOM      9  O   UNL     1      38.058 -26.389 -15.446  0.00  0.00    -0.379 OA
ATOM     10  H   UNL     1      38.321 -27.321 -15.377  0.00  0.00    +0.211 HD
ENDBRANCH   4   9
BRANCH   8  11
ATOM     11  O   UNL     1      34.930 -24.950 -11.165  0.00  0.00    -0.358 OA
ATOM     12  H   UNL     1      34.272 -25.499 -11.620  0.00  0.00    +0.213 HD
ENDBRANCH   8  11
BRANCH   6  13
ATOM     13  O   UNL     1      34.471 -25.047 -13.820  0.00  0.00    -0.195 OA
BRANCH  13  14
ATOM     14  S   UNL     1      33.080 -24.219 -14.030  0.00  0.00    +0.239 S 
ATOM     15  O   UNL     1      31.953 -25.391 -14.162  0.00  0.00    -0.116 OA
ATOM     16  O   UNL     1      32.817 -23.495 -12.800  0.00  0.00    -0.022 OA
ATOM     17  O   UNL     1      33.137 -23.511 -15.295  0.00  0.00    -0.116 OA
ENDBRANCH  13  14
ENDBRANCH   6  13
TORSDOF 4
ENDMDL
MODEL 3
REMARK VINA RESULT:      -6.9      2.683      4.373
REMARK  Name = 446806
REMARK  4 active torsions:
REMARK  status: ('A' for Active; 'I' for Inactive)
REMARK    1  A    between atoms: C_4  and  O_9
REMARK    2  A    between atoms: C_6  and  O_13
REMARK    3  A    between atoms: C_8  and  O_11
REMARK    4  A    between atoms: O_13  and  S_14
REMARK                            x       y       z     vdW  Elec       q    Type
REMARK                         _______ _______ _______ _____ _____    ______ ____
ROOT
ATOM      1  O   UNL     1      36.529 -25.694 -12.412  0.00  0.00    -0.348 OA
ATOM      2  O   UNL     1      38.280 -26.333 -14.857  0.00  0.00    -0.326 OA
ATOM      3  C   UNL     1      36.373 -24.790 -13.532  0.00  0.00    +0.179 C 
ATOM      4  C   UNL     1      37.776 -24.255 -13.785  0.00  0.00    +0.170 C 
ATOM      5  C   UNL     1      38.529 -25.561 -13.669  0.00  0.00    +0.176 C 
ATOM      6  C   UNL     1      35.916 -25.614 -14.743  0.00  0.00    +0.232 C 
ATOM      7  C   UNL     1      37.891 -26.184 -12.430  0.00  0.00    +0.174 C 
ATOM      8  C   UNL     1      36.919 -26.746 -15.044  0.00  0.00    +0.265 C 
ENDROOT
BRANCH   4   9
ATOM      9  O   UNL     1      38.166 -23.326 -12.784  0.00  0.00    -0.379 OA
ATOM     10  H   UNL     1      37.415 -22.751 -12.566  0.00  0.00    +0.211 HD
ENDBRANCH   4   9
BRANCH   8  11
ATOM     11  O   UNL     1      36.706 -27.225 -16.369  0.00  0.00    -0.358 OA
ATOM     12  H   UNL     1      37.049 -28.129 -16.445  0.00  0.00    +0.213 HD
ENDBRANCH   8  11
BRANCH   6  13
ATOM     13  O   UNL     1      35.762 -24.750 -15.867  0.00  0.00    -0.195 OA
BRANCH  13  14
ATOM     14  S   UNL     1      34.631 -23.573 -15.831  0.00  0.00    +0.239 S 
ATOM     15  O   UNL     1      34.165 -23.441 -17.389  0.00  0.00    -0.116 OA
ATOM     16  O   UNL     1      33.500 -24.081 -15.077  0.00  0.00    -0.022 OA
ATOM     17  O   UNL     1      35.261 -22.323 -15.447  0.00  0.00    -0.116 OA
ENDBRANCH  13  14
ENDBRANCH   6  13
TORSDOF 4
ENDMDL
MODEL 4
REMARK VINA RESULT:      -6.6      1.851      3.421
REMARK  Name = 446806
REMARK  4 active torsions:
REMARK  status: ('A' for Active; 'I' for Inactive)
REMARK    1  A    between atoms: C_4  and  O_9
REMARK    2  A    between atoms: C_6  and  O_13
REMARK    3  A    between atoms: C_8  and  O_11
REMARK    4  A    between atoms: O_13  and  S_14
REMARK                            x       y       z     vdW  Elec       q    Type
REMARK                         _______ _______ _______ _____ _____    ______ ____
ROOT
ATOM      1  O   UNL     1      35.923 -24.828 -13.148  0.00  0.00    -0.348 OA
ATOM      2  O   UNL     1      35.969 -23.553 -15.946  0.00  0.00    -0.326 OA
ATOM      3  C   UNL     1      37.012 -25.256 -14.000  0.00  0.00    +0.179 C 
ATOM      4  C   UNL     1      36.327 -25.811 -15.242  0.00  0.00    +0.170 C 
ATOM      5  C   UNL     1      35.301 -24.717 -15.428  0.00  0.00    +0.176 C 
ATOM      6  C   UNL     1      37.829 -24.014 -14.381  0.00  0.00    +0.232 C 
ATOM      7  C   UNL     1      34.798 -24.509 -14.002  0.00  0.00    +0.174 C 
ATOM      8  C   UNL     1      36.935 -22.961 -15.065  0.00  0.00    +0.265 C 
ENDROOT
BRANCH   4   9
ATOM      9  O   UNL     1      35.722 -27.069 -14.982  0.00  0.00    -0.379 OA
ATOM     10  H   UNL     1      36.154 -27.484 -14.218  0.00  0.00    +0.211 HD
ENDBRANCH   4   9
BRANCH   8  11
ATOM     11  O   UNL     1      37.755 -22.024 -15.759  0.00  0.00    -0.358 OA
ATOM     12  H   UNL     1      38.644 -22.023 -15.373  0.00  0.00    +0.213 HD
ENDBRANCH   8  11
BRANCH   6  13
ATOM     13  O   UNL     1      38.907 -24.404 -15.230  0.00  0.00    -0.195 OA
BRANCH  13  14
ATOM     14  S   UNL     1      40.091 -25.361 -14.641  0.00  0.00    +0.239 S 
ATOM     15  O   UNL     1      40.672 -26.112 -15.968  0.00  0.00    -0.116 OA
ATOM     16  O   UNL     1      41.139 -24.493 -14.136  0.00  0.00    -0.022 OA
ATOM     17  O   UNL     1      39.501 -26.369 -13.780  0.00  0.00    -0.116 OA
ENDBRANCH  13  14
ENDBRANCH   6  13
TORSDOF 4
ENDMDL
MODEL 5
REMARK VINA RESULT:      -6.6      3.115      5.148
REMARK  Name = 446806
REMARK  4 active torsions:
REMARK  status: ('A' for Active; 'I' for Inactive)
REMARK    1  A    between atoms: C_4  and  O_9
REMARK    2  A    between atoms: C_6  and  O_13
REMARK    3  A    between atoms: C_8  and  O_11
REMARK    4  A    between atoms: O_13  and  S_14
REMARK                            x       y       z     vdW  Elec       q    Type
REMARK                         _______ _______ _______ _____ _____    ______ ____
ROOT
ATOM      1  O   UNL     1      36.516 -25.664 -11.769  0.00  0.00    -0.348 OA
ATOM      2  O   UNL     1      37.122 -24.121 -14.360  0.00  0.00    -0.326 OA
ATOM      3  C   UNL     1      35.677 -24.508 -12.006  0.00  0.00    +0.179 C 
ATOM      4  C   UNL     1      36.656 -23.350 -12.143  0.00  0.00    +0.170 C 
ATOM      5  C   UNL     1      37.672 -24.031 -13.032  0.00  0.00    +0.176 C 
ATOM      6  C   UNL     1      34.949 -24.720 -13.340  0.00  0.00    +0.232 C 
ATOM      7  C   UNL     1      37.808 -25.398 -12.368  0.00  0.00    +0.174 C 
ATOM      8  C   UNL     1      35.958 -24.950 -14.483  0.00  0.00    +0.265 C 
ENDROOT
BRANCH   4   9
ATOM      9  O   UNL     1      37.210 -22.986 -10.887  0.00  0.00    -0.379 OA
ATOM     10  H   UNL     1      37.029 -23.686 -10.239  0.00  0.00    +0.211 HD
ENDBRANCH   4   9
BRANCH   8  11
ATOM     11  O   UNL     1      35.309 -24.740 -15.734  0.00  0.00    -0.358 OA
ATOM     12  H   UNL     1      34.513 -25.292 -15.783  0.00  0.00    +0.213 HD
ENDBRANCH   8  11
BRANCH   6  13
ATOM     13  O   UNL     1      34.119 -23.591 -13.605  0.00  0.00    -0.195 OA
BRANCH  13  14
ATOM     14  S   UNL     1      32.554 -23.818 -14.012  0.00  0.00    +0.239 S 
ATOM     15  O   UNL     1      32.336 -25.423 -13.816  0.00  0.00    -0.116 OA
ATOM     16  O   UNL     1      31.744 -23.141 -13.016  0.00  0.00    -0.022 OA
ATOM     17  O   UNL     1      32.383 -23.513 -15.421  0.00  0.00    -0.116 OA
ENDBRANCH  13  14
ENDBRANCH   6  13
TORSDOF 4
ENDMDL
MODEL 6
REMARK VINA RESULT:      -6.5      2.601      4.766
REMARK  Name = 446806
REMARK  4 active torsions:
REMARK  status: ('A' for Active; 'I' for Inactive)
REMARK    1  A    between atoms: C_4  and  O_9
REMARK    2  A    between atoms: C_6  and  O_13
REMARK    3  A    between atoms: C_8  and  O_11
REMARK    4  A    between atoms: O_13  and  S_14
REMARK                            x       y       z     vdW  Elec       q    Type
REMARK                         _______ _______ _______ _____ _____    ______ ____
ROOT
ATOM      1  O   UNL     1      38.576 -24.506 -13.796  0.00  0.00    -0.348 OA
ATOM      2  O   UNL     1      36.152 -25.518 -12.195  0.00  0.00    -0.326 OA
ATOM      3  C   UNL     1      37.453 -24.947 -14.596  0.00  0.00    +0.179 C 
ATOM      4  C   UNL     1      37.216 -26.385 -14.155  0.00  0.00    +0.170 C 
ATOM      5  C   UNL     1      37.343 -26.177 -12.663  0.00  0.00    +0.176 C 
ATOM      6  C   UNL     1      36.237 -24.091 -14.215  0.00  0.00    +0.232 C 
ATOM      7  C   UNL     1      38.575 -25.281 -12.573  0.00  0.00    +0.174 C 
ATOM      8  C   UNL     1      35.950 -24.191 -12.703  0.00  0.00    +0.265 C 
ENDROOT
BRANCH   4   9
ATOM      9  O   UNL     1      38.220 -27.255 -14.657  0.00  0.00    -0.379 OA
ATOM     10  H   UNL     1      39.091 -26.841 -14.547  0.00  0.00    +0.211 HD
ENDBRANCH   4   9
BRANCH   8  11
ATOM     11  O   UNL     1      34.623 -23.740 -12.444  0.00  0.00    -0.358 OA
ATOM     12  H   UNL     1      34.155 -24.400 -11.910  0.00  0.00    +0.213 HD
ENDBRANCH   8  11
BRANCH   6  13
ATOM     13  O   UNL     1      35.110 -24.510 -14.982  0.00  0.00    -0.195 OA
BRANCH  13  14
ATOM     14  S   UNL     1      34.300 -23.419 -15.887  0.00  0.00    +0.239 S 
ATOM     15  O   UNL     1      35.353 -22.181 -16.029  0.00  0.00    -0.116 OA
ATOM     16  O   UNL     1      34.123 -23.996 -17.207  0.00  0.00    -0.022 OA
ATOM     17  O   UNL     1      33.151 -22.944 -15.139  0.00  0.00    -0.116 OA
ENDBRANCH  13  14
ENDBRANCH   6  13
TORSDOF 4
ENDMDL
MODEL 7
REMARK VINA RESULT:      -6.2      4.064      5.535
REMARK  Name = 446806
REMARK  4 active torsions:
REMARK  status: ('A' for Active; 'I' for Inactive)
REMARK    1  A    between atoms: C_4  and  O_9
REMARK    2  A    between atoms: C_6  and  O_13
REMARK    3  A    between atoms: C_8  and  O_11
REMARK    4  A    between atoms: O_13  and  S_14
REMARK                            x       y       z     vdW  Elec       q    Type
REMARK                         _______ _______ _______ _____ _____    ______ ____
ROOT
ATOM      1  O   UNL     1      31.957 -22.726 -13.639  0.00  0.00    -0.348 OA
ATOM      2  O   UNL     1      31.874 -23.861 -16.496  0.00  0.00    -0.326 OA
ATOM      3  C   UNL     1      32.597 -24.013 -13.807  0.00  0.00    +0.179 C 
ATOM      4  C   UNL     1      31.505 -24.908 -14.377  0.00  0.00    +0.170 C 
ATOM      5  C   UNL     1      30.947 -23.943 -15.398  0.00  0.00    +0.176 C 
ATOM      6  C   UNL     1      33.716 -23.851 -14.844  0.00  0.00    +0.232 C 
ATOM      7  C   UNL     1      30.877 -22.644 -14.600  0.00  0.00    +0.174 C 
ATOM      8  C   UNL     1      33.156 -23.303 -16.172  0.00  0.00    +0.265 C 
ENDROOT
BRANCH   4   9
ATOM      9  O   UNL     1      30.545 -25.249 -13.388  0.00  0.00    -0.379 OA
ATOM     10  H   UNL     1      30.821 -26.062 -12.936  0.00  0.00    +0.211 HD
ENDBRANCH   4   9
BRANCH   8  11
ATOM     11  O   UNL     1      34.096 -23.541 -17.216  0.00  0.00    -0.358 OA
ATOM     12  H   UNL     1      34.795 -22.870 -17.181  0.00  0.00    +0.213 HD
ENDBRANCH   8  11
BRANCH   6  13
ATOM     13  O   UNL     1      34.361 -25.109 -15.038  0.00  0.00    -0.195 OA
BRANCH  13  14
ATOM     14  S   UNL     1      35.986 -25.210 -14.913  0.00  0.00    +0.239 S 
ATOM     15  O   UNL     1      36.344 -26.603 -15.683  0.00  0.00    -0.116 OA
ATOM     16  O   UNL     1      36.549 -24.123 -15.692  0.00  0.00    -0.022 OA
ATOM     17  O   UNL     1      36.344 -25.368 -13.516  0.00  0.00    -0.116 OA
ENDBRANCH  13  14
ENDBRANCH   6  13
TORSDOF 4
ENDMDL
MODEL 8
REMARK VINA RESULT:      -6.0      3.318      4.959
REMARK  Name = 446806
REMARK  4 active torsions:
REMARK  status: ('A' for Active; 'I' for Inactive)
REMARK    1  A    between atoms: C_4  and  O_9
REMARK    2  A    between atoms: C_6  and  O_13
REMARK    3  A    between atoms: C_8  and  O_11
REMARK    4  A    between atoms: O_13  and  S_14
REMARK                            x       y       z     vdW  Elec       q    Type
REMARK                         _______ _______ _______ _____ _____    ______ ____
ROOT
ATOM      1  O   UNL     1      37.467 -22.756 -13.733  0.00  0.00    -0.348 OA
ATOM      2  O   UNL     1      36.157 -25.539 -13.731  0.00  0.00    -0.326 OA
ATOM      3  C   UNL     1      37.104 -23.265 -15.039  0.00  0.00    +0.179 C 
ATOM      4  C   UNL     1      37.839 -24.594 -15.146  0.00  0.00    +0.170 C 
ATOM      5  C   UNL     1      37.534 -25.121 -13.762  0.00  0.00    +0.176 C 
ATOM      6  C   UNL     1      35.590 -23.519 -15.042  0.00  0.00    +0.232 C 
ATOM      7  C   UNL     1      37.786 -23.892 -12.893  0.00  0.00    +0.174 C 
ATOM      8  C   UNL     1      35.197 -24.489 -13.910  0.00  0.00    +0.265 C 
ENDROOT
BRANCH   4   9
ATOM      9  O   UNL     1      39.232 -24.402 -15.346  0.00  0.00    -0.379 OA
ATOM     10  H   UNL     1      39.527 -23.625 -14.845  0.00  0.00    +0.211 HD
ENDBRANCH   4   9
BRANCH   8  11
ATOM     11  O   UNL     1      33.900 -25.020 -14.173  0.00  0.00    -0.358 OA
ATOM     12  H   UNL     1      33.964 -25.978 -14.305  0.00  0.00    +0.213 HD
ENDBRANCH   8  11
BRANCH   6  13
ATOM     13  O   UNL     1      35.203 -24.030 -16.316  0.00  0.00    -0.195 OA
BRANCH  13  14
ATOM     14  S   UNL     1      34.123 -23.206 -17.222  0.00  0.00    +0.239 S 
ATOM     15  O   UNL     1      33.688 -24.280 -18.371  0.00  0.00    -0.116 OA
ATOM     16  O   UNL     1      32.960 -22.959 -16.391  0.00  0.00    -0.022 OA
ATOM     17  O   UNL     1      34.800 -22.102 -17.876  0.00  0.00    -0.116 OA
ENDBRANCH  13  14
ENDBRANCH   6  13
TORSDOF 4
ENDMDL
MODEL 9
REMARK VINA RESULT:      -5.9     12.078     13.376
REMARK  Name = 446806
REMARK  4 active torsions:
REMARK  status: ('A' for Active; 'I' for Inactive)
REMARK    1  A    between atoms: C_4  and  O_9
REMARK    2  A    between atoms: C_6  and  O_13
REMARK    3  A    between atoms: C_8  and  O_11
REMARK    4  A    between atoms: O_13  and  S_14
REMARK                            x       y       z     vdW  Elec       q    Type
REMARK                         _______ _______ _______ _____ _____    ______ ____
ROOT
ATOM      1  O   UNL     1      34.913 -14.059 -22.083  0.00  0.00    -0.348 OA
ATOM      2  O   UNL     1      33.480 -15.619 -24.312  0.00  0.00    -0.326 OA
ATOM      3  C   UNL     1      34.175 -15.223 -21.640  0.00  0.00    +0.179 C 
ATOM      4  C   UNL     1      32.753 -14.977 -22.125  0.00  0.00    +0.170 C 
ATOM      5  C   UNL     1      33.082 -14.487 -23.517  0.00  0.00    +0.176 C 
ATOM      6  C   UNL     1      34.753 -16.449 -22.360  0.00  0.00    +0.232 C 
ATOM      7  C   UNL     1      34.240 -13.530 -23.251  0.00  0.00    +0.174 C 
ATOM      8  C   UNL     1      34.689 -16.266 -23.889  0.00  0.00    +0.265 C 
ENDROOT
BRANCH   4   9
ATOM      9  O   UNL     1      32.105 -13.978 -21.351  0.00  0.00    -0.379 OA
ATOM     10  H   UNL     1      31.940 -13.197 -21.903  0.00  0.00    +0.211 HD
ENDBRANCH   4   9
BRANCH   8  11
ATOM     11  O   UNL     1      34.840 -17.534 -24.523  0.00  0.00    -0.358 OA
ATOM     12  H   UNL     1      34.665 -18.240 -23.882  0.00  0.00    +0.213 HD
ENDBRANCH   8  11
BRANCH   6  13
ATOM     13  O   UNL     1      34.038 -17.613 -21.950  0.00  0.00    -0.195 OA
BRANCH  13  14
ATOM     14  S   UNL     1      34.861 -18.927 -21.440  0.00  0.00    +0.239 S 
ATOM     15  O   UNL     1      33.772 -19.734 -20.532  0.00  0.00    -0.116 OA
ATOM     16  O   UNL     1      35.146 -19.741 -22.607  0.00  0.00    -0.022 OA
ATOM     17  O   UNL     1      35.940 -18.501 -20.568  0.00  0.00    -0.116 OA
ENDBRANCH  13  14
ENDBRANCH   6  13
TORSDOF 4
ENDMDL
