MODEL 1
REMARK VINA RESULT:      -5.6      0.000      0.000
REMARK  Name = 17754062
REMARK  9 active torsions:
REMARK  status: ('A' for Active; 'I' for Inactive)
REMARK    1  A    between atoms: C_1  and  C_2
REMARK    2  A    between atoms: C_1  and  C_11
REMARK    3  A    between atoms: C_2  and  C_3
REMARK    4  A    between atoms: C_3  and  C_4
REMARK    5  A    between atoms: C_4  and  N_6
REMARK    6  A    between atoms: C_7  and  O_9
REMARK    7  A    between atoms: C_11  and  N_12
REMARK    8  A    between atoms: C_11  and  C_16
REMARK    9  A    between atoms: C_16  and  O_17
REMARK                            x       y       z     vdW  Elec       q    Type
REMARK                         _______ _______ _______ _____ _____    ______ ____
ROOT
ATOM      1  C   UNK     1      37.332 -24.367 -14.842  0.00  0.00    -0.019 C 
ENDROOT
BRANCH   1   2
ATOM      2  C   UNK     1      38.593 -24.997 -14.237  0.00  0.00    -0.000 C 
BRANCH   2   3
ATOM      3  C   UNK     1      38.718 -24.660 -12.746  0.00  0.00    +0.021 C 
BRANCH   3   4
ATOM      4  C   UNK     1      37.689 -23.631 -12.291  0.00  0.00    +0.093 C 
BRANCH   4   6
ATOM      5  O   UNK     1      34.837 -24.057 -11.817  0.00  0.00    -0.227 OA
ATOM      6  N   UNK     1      37.042 -24.009 -11.064  0.00  0.00    -0.271 N 
ATOM      7  C   UNK     1      35.679 -24.187 -10.936  0.00  0.00    +0.398 C 
ATOM      8  H   UNK     1      37.603 -24.148 -10.268  0.00  0.00    +0.153 HD
BRANCH   7   9
ATOM      9  O   UNK     1      35.355 -24.541  -9.664  0.00  0.00    -0.466 OA
ATOM     10  H   UNK     1      34.463 -24.502  -9.381  0.00  0.00    +0.297 HD
ENDBRANCH   7   9
ENDBRANCH   4   6
ENDBRANCH   3   4
ENDBRANCH   2   3
ENDBRANCH   1   2
BRANCH   1  11
ATOM     11  C   UNK     1      36.259 -25.399 -15.241  0.00  0.00    -0.036 C 
BRANCH  11  12
ATOM     12  N   UNK     1      35.098 -25.329 -14.353  0.00  0.00    +0.383 N 
ATOM     13  H   UNK     1      34.993 -26.216 -13.861  0.00  0.00    -0.089 HD
ATOM     14  H   UNK     1      34.259 -25.146 -14.904  0.00  0.00    -0.089 HD
ATOM     15  H   UNK     1      35.232 -24.578 -13.677  0.00  0.00    -0.089 HD
ENDBRANCH  11  12
BRANCH  11  16
ATOM     16  C   UNK     1      36.820 -26.825 -15.202  0.00  0.00    +0.115 C 
BRANCH  16  17
ATOM     17  O   UNK     1      36.784 -27.418 -16.495  0.00  0.00    -0.384 OA
ATOM     18  H   UNK     1      36.361 -26.808 -17.119  0.00  0.00    +0.210 HD
ENDBRANCH  16  17
ENDBRANCH  11  16
ENDBRANCH   1  11
TORSDOF 9
ENDMDL
MODEL 2
REMARK VINA RESULT:      -5.6      2.280      5.019
REMARK  Name = 17754062
REMARK  9 active torsions:
REMARK  status: ('A' for Active; 'I' for Inactive)
REMARK    1  A    between atoms: C_1  and  C_2
REMARK    2  A    between atoms: C_1  and  C_11
REMARK    3  A    between atoms: C_2  and  C_3
REMARK    4  A    between atoms: C_3  and  C_4
REMARK    5  A    between atoms: C_4  and  N_6
REMARK    6  A    between atoms: C_7  and  O_9
REMARK    7  A    between atoms: C_11  and  N_12
REMARK    8  A    between atoms: C_11  and  C_16
REMARK    9  A    between atoms: C_16  and  O_17
REMARK                            x       y       z     vdW  Elec       q    Type
REMARK                         _______ _______ _______ _____ _____    ______ ____
ROOT
ATOM      1  C   UNK     1      36.537 -23.270 -13.365  0.00  0.00    -0.019 C 
ENDROOT
BRANCH   1   2
ATOM      2  C   UNK     1      35.461 -24.256 -13.840  0.00  0.00    -0.000 C 
BRANCH   2   3
ATOM      3  C   UNK     1      36.029 -25.238 -14.872  0.00  0.00    +0.021 C 
BRANCH   3   4
ATOM      4  C   UNK     1      37.135 -26.117 -14.298  0.00  0.00    +0.093 C 
BRANCH   4   6
ATOM      5  O   UNK     1      39.742 -24.855 -13.917  0.00  0.00    -0.227 OA
ATOM      6  N   UNK     1      38.284 -26.184 -15.157  0.00  0.00    -0.271 N 
ATOM      7  C   UNK     1      39.482 -25.549 -14.892  0.00  0.00    +0.398 C 
ATOM      8  H   UNK     1      38.214 -26.713 -15.984  0.00  0.00    +0.153 HD
BRANCH   7   9
ATOM      9  O   UNK     1      40.385 -25.790 -15.879  0.00  0.00    -0.466 OA
ATOM     10  H   UNK     1      41.233 -25.393 -15.844  0.00  0.00    +0.297 HD
ENDBRANCH   7   9
ENDBRANCH   4   6
ENDBRANCH   3   4
ENDBRANCH   2   3
ENDBRANCH   1   2
BRANCH   1  11
ATOM     11  C   UNK     1      36.816 -23.344 -11.851  0.00  0.00    -0.036 C 
BRANCH  11  12
ATOM     12  N   UNK     1      38.175 -23.817 -11.584  0.00  0.00    +0.383 N 
ATOM     13  H   UNK     1      38.685 -23.107 -11.059  0.00  0.00    -0.089 HD
ATOM     14  H   UNK     1      38.652 -23.996 -12.467  0.00  0.00    -0.089 HD
ATOM     15  H   UNK     1      38.133 -24.679 -11.039  0.00  0.00    -0.089 HD
ENDBRANCH  11  12
BRANCH  11  16
ATOM     16  C   UNK     1      35.826 -24.282 -11.151  0.00  0.00    +0.115 C 
BRANCH  16  17
ATOM     17  O   UNK     1      36.011 -24.251  -9.741  0.00  0.00    -0.384 OA
ATOM     18  H   UNK     1      35.326 -23.696  -9.337  0.00  0.00    +0.210 HD
ENDBRANCH  16  17
ENDBRANCH  11  16
ENDBRANCH   1  11
TORSDOF 9
ENDMDL
MODEL 3
REMARK VINA RESULT:      -5.6      2.101      2.783
REMARK  Name = 17754062
REMARK  9 active torsions:
REMARK  status: ('A' for Active; 'I' for Inactive)
REMARK    1  A    between atoms: C_1  and  C_2
REMARK    2  A    between atoms: C_1  and  C_11
REMARK    3  A    between atoms: C_2  and  C_3
REMARK    4  A    between atoms: C_3  and  C_4
REMARK    5  A    between atoms: C_4  and  N_6
REMARK    6  A    between atoms: C_7  and  O_9
REMARK    7  A    between atoms: C_11  and  N_12
REMARK    8  A    between atoms: C_11  and  C_16
REMARK    9  A    between atoms: C_16  and  O_17
REMARK                            x       y       z     vdW  Elec       q    Type
REMARK                         _______ _______ _______ _____ _____    ______ ____
ROOT
ATOM      1  C   UNK     1      37.900 -24.367 -14.673  0.00  0.00    -0.019 C 
ENDROOT
BRANCH   1   2
ATOM      2  C   UNK     1      36.425 -24.654 -14.983  0.00  0.00    -0.000 C 
BRANCH   2   3
ATOM      3  C   UNK     1      35.520 -23.541 -14.440  0.00  0.00    +0.021 C 
BRANCH   3   4
ATOM      4  C   UNK     1      34.633 -24.016 -13.294  0.00  0.00    +0.093 C 
BRANCH   4   6
ATOM      5  O   UNK     1      36.237 -25.661 -11.490  0.00  0.00    -0.227 OA
ATOM      6  N   UNK     1      35.163 -23.659 -12.007  0.00  0.00    -0.271 N 
ATOM      7  C   UNK     1      35.915 -24.509 -11.221  0.00  0.00    +0.398 C 
ATOM      8  H   UNK     1      34.978 -22.755 -11.664  0.00  0.00    +0.153 HD
BRANCH   7   9
ATOM      9  O   UNK     1      36.278 -23.902 -10.061  0.00  0.00    -0.466 OA
ATOM     10  H   UNK     1      35.762 -23.198  -9.720  0.00  0.00    +0.297 HD
ENDBRANCH   7   9
ENDBRANCH   4   6
ENDBRANCH   3   4
ENDBRANCH   2   3
ENDBRANCH   1   2
BRANCH   1  11
ATOM     11  C   UNK     1      38.739 -25.638 -14.437  0.00  0.00    -0.036 C 
BRANCH  11  12
ATOM     12  N   UNK     1      38.685 -26.059 -13.037  0.00  0.00    +0.383 N 
ATOM     13  H   UNK     1      39.549 -25.787 -12.567  0.00  0.00    -0.089 HD
ATOM     14  H   UNK     1      38.579 -27.072 -12.991  0.00  0.00    -0.089 HD
ATOM     15  H   UNK     1      37.892 -25.612 -12.578  0.00  0.00    -0.089 HD
ENDBRANCH  11  12
BRANCH  11  16
ATOM     16  C   UNK     1      40.205 -25.413 -14.824  0.00  0.00    +0.115 C 
BRANCH  16  17
ATOM     17  O   UNK     1      40.478 -25.959 -16.109  0.00  0.00    -0.384 OA
ATOM     18  H   UNK     1      40.892 -26.831 -16.009  0.00  0.00    +0.210 HD
ENDBRANCH  16  17
ENDBRANCH  11  16
ENDBRANCH   1  11
TORSDOF 9
ENDMDL
MODEL 4
REMARK VINA RESULT:      -5.5      3.352      4.419
REMARK  Name = 17754062
REMARK  9 active torsions:
REMARK  status: ('A' for Active; 'I' for Inactive)
REMARK    1  A    between atoms: C_1  and  C_2
REMARK    2  A    between atoms: C_1  and  C_11
REMARK    3  A    between atoms: C_2  and  C_3
REMARK    4  A    between atoms: C_3  and  C_4
REMARK    5  A    between atoms: C_4  and  N_6
REMARK    6  A    between atoms: C_7  and  O_9
REMARK    7  A    between atoms: C_11  and  N_12
REMARK    8  A    between atoms: C_11  and  C_16
REMARK    9  A    between atoms: C_16  and  O_17
REMARK                            x       y       z     vdW  Elec       q    Type
REMARK                         _______ _______ _______ _____ _____    ______ ____
ROOT
ATOM      1  C   UNK     1      35.746 -25.119 -15.087  0.00  0.00    -0.019 C 
ENDROOT
BRANCH   1   2
ATOM      2  C   UNK     1      36.561 -26.235 -14.419  0.00  0.00    -0.000 C 
BRANCH   2   3
ATOM      3  C   UNK     1      37.094 -25.787 -13.053  0.00  0.00    +0.021 C 
BRANCH   3   4
ATOM      4  C   UNK     1      38.617 -25.724 -13.011  0.00  0.00    +0.093 C 
BRANCH   4   6
ATOM      5  O   UNK     1      40.944 -24.564 -14.344  0.00  0.00    -0.227 OA
ATOM      6  N   UNK     1      39.217 -26.126 -14.253  0.00  0.00    -0.271 N 
ATOM      7  C   UNK     1      40.323 -25.513 -14.808  0.00  0.00    +0.398 C 
ATOM      8  H   UNK     1      38.816 -26.883 -14.738  0.00  0.00    +0.153 HD
BRANCH   7   9
ATOM      9  O   UNK     1      40.666 -26.105 -15.982  0.00  0.00    -0.466 OA
ATOM     10  H   UNK     1      40.127 -25.991 -16.739  0.00  0.00    +0.297 HD
ENDBRANCH   7   9
ENDBRANCH   4   6
ENDBRANCH   3   4
ENDBRANCH   2   3
ENDBRANCH   1   2
BRANCH   1  11
ATOM     11  C   UNK     1      36.174 -23.702 -14.658  0.00  0.00    -0.036 C 
BRANCH  11  12
ATOM     12  N   UNK     1      35.014 -22.870 -14.339  0.00  0.00    +0.383 N 
ATOM     13  H   UNK     1      35.250 -22.235 -13.576  0.00  0.00    -0.089 HD
ATOM     14  H   UNK     1      34.236 -23.466 -14.055  0.00  0.00    -0.089 HD
ATOM     15  H   UNK     1      34.747 -22.330 -15.162  0.00  0.00    -0.089 HD
ENDBRANCH  11  12
BRANCH  11  16
ATOM     16  C   UNK     1      36.983 -23.010 -15.761  0.00  0.00    +0.115 C 
BRANCH  16  17
ATOM     17  O   UNK     1      38.354 -23.385 -15.692  0.00  0.00    -0.384 OA
ATOM     18  H   UNK     1      38.787 -22.897 -14.975  0.00  0.00    +0.210 HD
ENDBRANCH  16  17
ENDBRANCH  11  16
ENDBRANCH   1  11
TORSDOF 9
ENDMDL
MODEL 5
REMARK VINA RESULT:      -5.5      7.450      8.943
REMARK  Name = 17754062
REMARK  9 active torsions:
REMARK  status: ('A' for Active; 'I' for Inactive)
REMARK    1  A    between atoms: C_1  and  C_2
REMARK    2  A    between atoms: C_1  and  C_11
REMARK    3  A    between atoms: C_2  and  C_3
REMARK    4  A    between atoms: C_3  and  C_4
REMARK    5  A    between atoms: C_4  and  N_6
REMARK    6  A    between atoms: C_7  and  O_9
REMARK    7  A    between atoms: C_11  and  N_12
REMARK    8  A    between atoms: C_11  and  C_16
REMARK    9  A    between atoms: C_16  and  O_17
REMARK                            x       y       z     vdW  Elec       q    Type
REMARK                         _______ _______ _______ _____ _____    ______ ____
ROOT
ATOM      1  C   UNK     1      31.669 -23.533 -15.907  0.00  0.00    -0.019 C 
ENDROOT
BRANCH   1   2
ATOM      2  C   UNK     1      30.393 -22.740 -16.222  0.00  0.00    -0.000 C 
BRANCH   2   3
ATOM      3  C   UNK     1      29.144 -23.495 -15.753  0.00  0.00    +0.021 C 
BRANCH   3   4
ATOM      4  C   UNK     1      28.149 -23.739 -16.883  0.00  0.00    +0.093 C 
BRANCH   4   6
ATOM      5  O   UNK     1      25.874 -22.085 -16.094  0.00  0.00    -0.227 OA
ATOM      6  N   UNK     1      27.692 -22.518 -17.486  0.00  0.00    -0.271 N 
ATOM      7  C   UNK     1      26.599 -21.801 -17.040  0.00  0.00    +0.398 C 
ATOM      8  H   UNK     1      28.187 -22.171 -18.262  0.00  0.00    +0.153 HD
BRANCH   7   9
ATOM      9  O   UNK     1      26.405 -20.692 -17.800  0.00  0.00    -0.466 OA
ATOM     10  H   UNK     1      26.821 -20.618 -18.636  0.00  0.00    +0.297 HD
ENDBRANCH   7   9
ENDBRANCH   4   6
ENDBRANCH   3   4
ENDBRANCH   2   3
ENDBRANCH   1   2
BRANCH   1  11
ATOM     11  C   UNK     1      32.034 -23.543 -14.410  0.00  0.00    -0.036 C 
BRANCH  11  12
ATOM     12  N   UNK     1      33.423 -23.133 -14.199  0.00  0.00    +0.383 N 
ATOM     13  H   UNK     1      33.958 -23.291 -15.052  0.00  0.00    -0.089 HD
ATOM     14  H   UNK     1      33.827 -23.681 -13.439  0.00  0.00    -0.089 HD
ATOM     15  H   UNK     1      33.452 -22.142 -13.957  0.00  0.00    -0.089 HD
ENDBRANCH  11  12
BRANCH  11  16
ATOM     16  C   UNK     1      31.838 -24.936 -13.802  0.00  0.00    +0.115 C 
BRANCH  16  17
ATOM     17  O   UNK     1      30.752 -24.938 -12.882  0.00  0.00    -0.384 OA
ATOM     18  H   UNK     1      30.773 -25.754 -12.359  0.00  0.00    +0.210 HD
ENDBRANCH  16  17
ENDBRANCH  11  16
ENDBRANCH   1  11
TORSDOF 9
ENDMDL
MODEL 6
REMARK VINA RESULT:      -5.4      9.791     11.376
REMARK  Name = 17754062
REMARK  9 active torsions:
REMARK  status: ('A' for Active; 'I' for Inactive)
REMARK    1  A    between atoms: C_1  and  C_2
REMARK    2  A    between atoms: C_1  and  C_11
REMARK    3  A    between atoms: C_2  and  C_3
REMARK    4  A    between atoms: C_3  and  C_4
REMARK    5  A    between atoms: C_4  and  N_6
REMARK    6  A    between atoms: C_7  and  O_9
REMARK    7  A    between atoms: C_11  and  N_12
REMARK    8  A    between atoms: C_11  and  C_16
REMARK    9  A    between atoms: C_16  and  O_17
REMARK                            x       y       z     vdW  Elec       q    Type
REMARK                         _______ _______ _______ _____ _____    ______ ____
ROOT
ATOM      1  C   UNK     1      33.311 -20.392 -20.328  0.00  0.00    -0.019 C 
ENDROOT
BRANCH   1   2
ATOM      2  C   UNK     1      34.581 -19.636 -20.740  0.00  0.00    -0.000 C 
BRANCH   2   3
ATOM      3  C   UNK     1      34.591 -19.352 -22.247  0.00  0.00    +0.021 C 
BRANCH   3   4
ATOM      4  C   UNK     1      35.528 -18.209 -22.622  0.00  0.00    +0.093 C 
BRANCH   4   6
ATOM      5  O   UNK     1      34.053 -15.997 -23.834  0.00  0.00    -0.227 OA
ATOM      6  N   UNK     1      35.439 -17.861 -24.014  0.00  0.00    -0.271 N 
ATOM      7  C   UNK     1      34.713 -16.790 -24.495  0.00  0.00    +0.398 C 
ATOM      8  H   UNK     1      35.925 -18.420 -24.662  0.00  0.00    +0.153 HD
BRANCH   7   9
ATOM      9  O   UNK     1      34.813 -16.707 -25.848  0.00  0.00    -0.466 OA
ATOM     10  H   UNK     1      34.141 -17.070 -26.390  0.00  0.00    +0.297 HD
ENDBRANCH   7   9
ENDBRANCH   4   6
ENDBRANCH   3   4
ENDBRANCH   2   3
ENDBRANCH   1   2
BRANCH   1  11
ATOM     11  C   UNK     1      33.591 -21.779 -19.717  0.00  0.00    -0.036 C 
BRANCH  11  12
ATOM     12  N   UNK     1      32.648 -22.087 -18.643  0.00  0.00    +0.383 N 
ATOM     13  H   UNK     1      32.478 -23.093 -18.616  0.00  0.00    -0.089 HD
ATOM     14  H   UNK     1      31.768 -21.600 -18.813  0.00  0.00    -0.089 HD
ATOM     15  H   UNK     1      33.038 -21.784 -17.750  0.00  0.00    -0.089 HD
ENDBRANCH  11  12
BRANCH  11  16
ATOM     16  C   UNK     1      35.015 -21.859 -19.155  0.00  0.00    +0.115 C 
BRANCH  16  17
ATOM     17  O   UNK     1      35.055 -22.678 -17.992  0.00  0.00    -0.384 OA
ATOM     18  H   UNK     1      35.494 -23.517 -18.202  0.00  0.00    +0.210 HD
ENDBRANCH  16  17
ENDBRANCH  11  16
ENDBRANCH   1  11
TORSDOF 9
ENDMDL
MODEL 7
REMARK VINA RESULT:      -5.3     12.298     13.760
REMARK  Name = 17754062
REMARK  9 active torsions:
REMARK  status: ('A' for Active; 'I' for Inactive)
REMARK    1  A    between atoms: C_1  and  C_2
REMARK    2  A    between atoms: C_1  and  C_11
REMARK    3  A    between atoms: C_2  and  C_3
REMARK    4  A    between atoms: C_3  and  C_4
REMARK    5  A    between atoms: C_4  and  N_6
REMARK    6  A    between atoms: C_7  and  O_9
REMARK    7  A    between atoms: C_11  and  N_12
REMARK    8  A    between atoms: C_11  and  C_16
REMARK    9  A    between atoms: C_16  and  O_17
REMARK                            x       y       z     vdW  Elec       q    Type
REMARK                         _______ _______ _______ _____ _____    ______ ____
ROOT
ATOM      1  C   UNK     1      35.096 -16.908 -21.479  0.00  0.00    -0.019 C 
ENDROOT
BRANCH   1   2
ATOM      2  C   UNK     1      34.040 -15.925 -20.957  0.00  0.00    -0.000 C 
BRANCH   2   3
ATOM      3  C   UNK     1      33.650 -14.909 -22.038  0.00  0.00    +0.021 C 
BRANCH   3   4
ATOM      4  C   UNK     1      34.429 -15.104 -23.334  0.00  0.00    +0.093 C 
BRANCH   4   6
ATOM      5  O   UNK     1      34.792 -16.655 -25.784  0.00  0.00    -0.227 OA
ATOM      6  N   UNK     1      33.573 -15.150 -24.487  0.00  0.00    -0.271 N 
ATOM      7  C   UNK     1      33.829 -15.918 -25.606  0.00  0.00    +0.398 C 
ATOM      8  H   UNK     1      32.756 -14.602 -24.479  0.00  0.00    +0.153 HD
BRANCH   7   9
ATOM      9  O   UNK     1      32.849 -15.761 -26.534  0.00  0.00    -0.466 OA
ATOM     10  H   UNK     1      32.788 -14.963 -27.020  0.00  0.00    +0.297 HD
ENDBRANCH   7   9
ENDBRANCH   4   6
ENDBRANCH   3   4
ENDBRANCH   2   3
ENDBRANCH   1   2
BRANCH   1  11
ATOM     11  C   UNK     1      34.593 -18.363 -21.569  0.00  0.00    -0.036 C 
BRANCH  11  12
ATOM     12  N   UNK     1      35.306 -19.231 -20.632  0.00  0.00    +0.383 N 
ATOM     13  H   UNK     1      36.295 -19.258 -20.878  0.00  0.00    -0.089 HD
ATOM     14  H   UNK     1      34.918 -20.173 -20.680  0.00  0.00    -0.089 HD
ATOM     15  H   UNK     1      35.200 -18.867 -19.685  0.00  0.00    -0.089 HD
ENDBRANCH  11  12
BRANCH  11  16
ATOM     16  C   UNK     1      34.770 -18.923 -22.985  0.00  0.00    +0.115 C 
BRANCH  16  17
ATOM     17  O   UNK     1      35.861 -18.293 -23.645  0.00  0.00    -0.384 OA
ATOM     18  H   UNK     1      36.369 -17.770 -23.005  0.00  0.00    +0.210 HD
ENDBRANCH  16  17
ENDBRANCH  11  16
ENDBRANCH   1  11
TORSDOF 9
ENDMDL
MODEL 8
REMARK VINA RESULT:      -5.2     12.092     13.580
REMARK  Name = 17754062
REMARK  9 active torsions:
REMARK  status: ('A' for Active; 'I' for Inactive)
REMARK    1  A    between atoms: C_1  and  C_2
REMARK    2  A    between atoms: C_1  and  C_11
REMARK    3  A    between atoms: C_2  and  C_3
REMARK    4  A    between atoms: C_3  and  C_4
REMARK    5  A    between atoms: C_4  and  N_6
REMARK    6  A    between atoms: C_7  and  O_9
REMARK    7  A    between atoms: C_11  and  N_12
REMARK    8  A    between atoms: C_11  and  C_16
REMARK    9  A    between atoms: C_16  and  O_17
REMARK                            x       y       z     vdW  Elec       q    Type
REMARK                         _______ _______ _______ _____ _____    ______ ____
ROOT
ATOM      1  C   UNK     1      34.335 -17.374 -21.416  0.00  0.00    -0.019 C 
ENDROOT
BRANCH   1   2
ATOM      2  C   UNK     1      34.448 -15.890 -21.042  0.00  0.00    -0.000 C 
BRANCH   2   3
ATOM      3  C   UNK     1      33.727 -15.006 -22.066  0.00  0.00    +0.021 C 
BRANCH   3   4
ATOM      4  C   UNK     1      34.479 -14.911 -23.390  0.00  0.00    +0.093 C 
BRANCH   4   6
ATOM      5  O   UNK     1      34.846 -16.711 -25.662  0.00  0.00    -0.227 OA
ATOM      6  N   UNK     1      33.616 -15.091 -24.525  0.00  0.00    -0.271 N 
ATOM      7  C   UNK     1      33.874 -15.972 -25.557  0.00  0.00    +0.398 C 
ATOM      8  H   UNK     1      32.791 -14.556 -24.570  0.00  0.00    +0.153 HD
BRANCH   7   9
ATOM      9  O   UNK     1      32.886 -15.928 -26.489  0.00  0.00    -0.466 OA
ATOM     10  H   UNK     1      32.850 -15.219 -27.100  0.00  0.00    +0.297 HD
ENDBRANCH   7   9
ENDBRANCH   4   6
ENDBRANCH   3   4
ENDBRANCH   2   3
ENDBRANCH   1   2
BRANCH   1  11
ATOM     11  C   UNK     1      35.699 -18.066 -21.610  0.00  0.00    -0.036 C 
BRANCH  11  12
ATOM     12  N   UNK     1      36.074 -18.116 -23.023  0.00  0.00    +0.383 N 
ATOM     13  H   UNK     1      35.482 -18.788 -23.509  0.00  0.00    -0.089 HD
ATOM     14  H   UNK     1      37.050 -18.402 -23.105  0.00  0.00    -0.089 HD
ATOM     15  H   UNK     1      35.954 -17.192 -23.439  0.00  0.00    -0.089 HD
ENDBRANCH  11  12
BRANCH  11  16
ATOM     16  C   UNK     1      35.675 -19.497 -21.060  0.00  0.00    +0.115 C 
BRANCH  16  17
ATOM     17  O   UNK     1      36.653 -19.662 -20.040  0.00  0.00    -0.384 OA
ATOM     18  H   UNK     1      36.214 -19.705 -19.176  0.00  0.00    +0.210 HD
ENDBRANCH  16  17
ENDBRANCH  11  16
ENDBRANCH   1  11
TORSDOF 9
ENDMDL
MODEL 9
REMARK VINA RESULT:      -5.2      7.863      9.005
REMARK  Name = 17754062
REMARK  9 active torsions:
REMARK  status: ('A' for Active; 'I' for Inactive)
REMARK    1  A    between atoms: C_1  and  C_2
REMARK    2  A    between atoms: C_1  and  C_11
REMARK    3  A    between atoms: C_2  and  C_3
REMARK    4  A    between atoms: C_3  and  C_4
REMARK    5  A    between atoms: C_4  and  N_6
REMARK    6  A    between atoms: C_7  and  O_9
REMARK    7  A    between atoms: C_11  and  N_12
REMARK    8  A    between atoms: C_11  and  C_16
REMARK    9  A    between atoms: C_16  and  O_17
REMARK                            x       y       z     vdW  Elec       q    Type
REMARK                         _______ _______ _______ _____ _____    ______ ____
ROOT
ATOM      1  C   UNK     1      33.358 -19.171 -21.128  0.00  0.00    -0.019 C 
ENDROOT
BRANCH   1   2
ATOM      2  C   UNK     1      33.065 -20.381 -20.232  0.00  0.00    -0.000 C 
BRANCH   2   3
ATOM      3  C   UNK     1      34.358 -21.116 -19.856  0.00  0.00    +0.021 C 
BRANCH   3   4
ATOM      4  C   UNK     1      34.098 -22.381 -19.045  0.00  0.00    +0.093 C 
BRANCH   4   6
ATOM      5  O   UNK     1      33.275 -23.434 -16.447  0.00  0.00    -0.227 OA
ATOM      6  N   UNK     1      32.778 -22.407 -18.479  0.00  0.00    -0.271 N 
ATOM      7  C   UNK     1      32.484 -22.930 -17.235  0.00  0.00    +0.398 C 
ATOM      8  H   UNK     1      32.039 -22.031 -19.009  0.00  0.00    +0.153 HD
BRANCH   7   9
ATOM      9  O   UNK     1      31.156 -22.819 -16.965  0.00  0.00    -0.466 OA
ATOM     10  H   UNK     1      30.843 -22.957 -16.093  0.00  0.00    +0.297 HD
ENDBRANCH   7   9
ENDBRANCH   4   6
ENDBRANCH   3   4
ENDBRANCH   2   3
ENDBRANCH   1   2
BRANCH   1  11
ATOM     11  C   UNK     1      34.859 -18.960 -21.409  0.00  0.00    -0.036 C 
BRANCH  11  12
ATOM     12  N   UNK     1      35.349 -17.729 -20.790  0.00  0.00    +0.383 N 
ATOM     13  H   UNK     1      34.663 -16.986 -20.922  0.00  0.00    -0.089 HD
ATOM     14  H   UNK     1      36.231 -17.457 -21.225  0.00  0.00    -0.089 HD
ATOM     15  H   UNK     1      35.495 -17.885 -19.792  0.00  0.00    -0.089 HD
ENDBRANCH  11  12
BRANCH  11  16
ATOM     16  C   UNK     1      35.137 -18.894 -22.915  0.00  0.00    +0.115 C 
BRANCH  16  17
ATOM     17  O   UNK     1      36.357 -18.211 -23.175  0.00  0.00    -0.384 OA
ATOM     18  H   UNK     1      37.073 -18.857 -23.280  0.00  0.00    +0.210 HD
ENDBRANCH  16  17
ENDBRANCH  11  16
ENDBRANCH   1  11
TORSDOF 9
ENDMDL
