MODEL 1
REMARK VINA RESULT:      -9.3      0.000      0.000
REMARK  Name = 51003457
REMARK  11 active torsions:
REMARK  status: ('A' for Active; 'I' for Inactive)
REMARK    1  A    between atoms: N_3  and  C1*_14
REMARK    2  A    between atoms: C_10  and  O_23
REMARK    3  A    between atoms: C3*_15  and  O3*_18
REMARK    4  A    between atoms: C4*_17  and  C5*_20
REMARK    5  A    between atoms: C5*_20  and  O5*_21
REMARK    6  A    between atoms: O_23  and  C_24
REMARK    7  A    between atoms: C_24  and  C_25
REMARK    8  A    between atoms: C_25  and  C_26
REMARK    9  A    between atoms: C_26  and  C_27
REMARK   10  A    between atoms: C_27  and  C_28
REMARK   11  A    between atoms: C_28  and  C_29
REMARK                            x       y       z     vdW  Elec       q    Type
REMARK                         _______ _______ _______ _____ _____    ______ ____
ROOT
ATOM      1  O   UNL     1      34.988  -9.372 -24.884  0.00  0.00    -0.252 OA
ATOM      2  O   UNL     1      32.425 -14.697 -22.399  0.00  0.00    -0.226 OA
ATOM      3  N   UNL     1      33.086  -9.751 -23.596  0.00  0.00    -0.220 N 
ATOM      4  N   UNL     1      34.488 -11.506 -24.234  0.00  0.00    -0.241 N 
ATOM      5  N   UNL     1      32.622 -12.112 -22.934  0.00  0.00    -0.220 NA
ATOM      6  N   UNL     1      34.116 -13.700 -23.647  0.00  0.00    -0.223 N 
ATOM      7  C   UNL     1      32.225 -10.705 -22.902  0.00  0.00    +0.228 C 
ATOM      8  C   UNL     1      34.237 -10.141 -24.281  0.00  0.00    +0.313 C 
ATOM      9  C   UNL     1      33.691 -12.412 -23.576  0.00  0.00    +0.194 C 
ATOM     10  C   UNL     1      33.460 -14.767 -23.055  0.00  0.00    +0.407 C 
ATOM     11  H   UNL     1      35.287 -11.845 -24.700  0.00  0.00    +0.159 HD
ATOM     12  H   UNL     1      34.941 -13.886 -24.150  0.00  0.00    +0.161 HD
ENDROOT
BRANCH   3  14
ATOM     13  O4* UNL     1      33.406  -7.720 -22.479  0.00  0.00    -0.335 OA
ATOM     14  C1* UNL     1      32.735  -8.361 -23.573  0.00  0.00    +0.199 C 
ATOM     15  C3* UNL     1      31.207  -6.843 -22.599  0.00  0.00    +0.144 C 
ATOM     16  C2* UNL     1      31.244  -8.132 -23.386  0.00  0.00    +0.083 C 
ATOM     17  C4* UNL     1      32.458  -6.929 -21.736  0.00  0.00    +0.173 C 
BRANCH  15  18
ATOM     18  O3* UNL     1      31.308  -5.733 -23.490  0.00  0.00    -0.382 OA
ATOM     19  H3* UNL     1      30.724  -5.877 -24.251  0.00  0.00    +0.210 HD
ENDBRANCH  15  18
BRANCH  17  20
ATOM     20  C5* UNL     1      32.213  -7.623 -20.403  0.00  0.00    +0.169 C 
BRANCH  20  21
ATOM     21  O5* UNL     1      33.244  -7.261 -19.500  0.00  0.00    -0.379 OA
ATOM     22  H5* UNL     1      34.095  -7.591 -19.830  0.00  0.00    +0.211 HD
ENDBRANCH  20  21
ENDBRANCH  17  20
ENDBRANCH   3  14
BRANCH  10  23
ATOM     23  O   UNL     1      34.135 -15.933 -23.307  0.00  0.00    -0.434 OA
BRANCH  23  24
ATOM     24  C   UNL     1      34.234 -16.320 -24.672  0.00  0.00    +0.210 C 
BRANCH  24  25
ATOM     25  C   UNL     1      34.535 -17.811 -24.741  0.00  0.00    +0.048 C 
BRANCH  25  26
ATOM     26  C   UNL     1      35.368 -18.273 -23.546  0.00  0.00    +0.004 C 
BRANCH  26  27
ATOM     27  C   UNL     1      34.586 -19.256 -22.673  0.00  0.00    +0.000 C 
BRANCH  27  28
ATOM     28  C   UNL     1      35.218 -19.485 -21.297  0.00  0.00    +0.000 C 
BRANCH  28  29
ATOM     29  C   UNL     1      34.368 -20.361 -20.375  0.00  0.00    +0.000 C 
ATOM     30  C   UNL     1      32.884 -20.082 -20.559  0.00  0.00    +0.000 C 
ENDBRANCH  28  29
ENDBRANCH  27  28
ENDBRANCH  26  27
ENDBRANCH  25  26
ENDBRANCH  24  25
ENDBRANCH  23  24
ENDBRANCH  10  23
TORSDOF 11
ENDMDL
MODEL 2
REMARK VINA RESULT:      -9.2      9.091     14.260
REMARK  Name = 51003457
REMARK  11 active torsions:
REMARK  status: ('A' for Active; 'I' for Inactive)
REMARK    1  A    between atoms: N_3  and  C1*_14
REMARK    2  A    between atoms: C_10  and  O_23
REMARK    3  A    between atoms: C3*_15  and  O3*_18
REMARK    4  A    between atoms: C4*_17  and  C5*_20
REMARK    5  A    between atoms: C5*_20  and  O5*_21
REMARK    6  A    between atoms: O_23  and  C_24
REMARK    7  A    between atoms: C_24  and  C_25
REMARK    8  A    between atoms: C_25  and  C_26
REMARK    9  A    between atoms: C_26  and  C_27
REMARK   10  A    between atoms: C_27  and  C_28
REMARK   11  A    between atoms: C_28  and  C_29
REMARK                            x       y       z     vdW  Elec       q    Type
REMARK                         _______ _______ _______ _____ _____    ______ ____
ROOT
ATOM      1  O   UNL     1      38.401 -22.171 -16.135  0.00  0.00    -0.252 OA
ATOM      2  O   UNL     1      32.405 -22.787 -18.319  0.00  0.00    -0.226 OA
ATOM      3  N   UNL     1      36.514 -23.233 -15.278  0.00  0.00    -0.220 N 
ATOM      4  N   UNL     1      36.447 -22.101 -17.319  0.00  0.00    -0.241 N 
ATOM      5  N   UNL     1      34.428 -23.102 -16.641  0.00  0.00    -0.220 NA
ATOM      6  N   UNL     1      34.556 -21.954 -18.623  0.00  0.00    -0.223 N 
ATOM      7  C   UNL     1      35.101 -23.571 -15.431  0.00  0.00    +0.228 C 
ATOM      8  C   UNL     1      37.212 -22.484 -16.226  0.00  0.00    +0.313 C 
ATOM      9  C   UNL     1      35.120 -22.421 -17.479  0.00  0.00    +0.194 C 
ATOM     10  C   UNL     1      33.232 -22.164 -18.977  0.00  0.00    +0.407 C 
ATOM     11  H   UNL     1      36.882 -21.569 -18.024  0.00  0.00    +0.159 HD
ATOM     12  H   UNL     1      35.122 -21.436 -19.238  0.00  0.00    +0.161 HD
ENDROOT
BRANCH   3  14
ATOM     13  O4* UNL     1      38.121 -24.733 -14.478  0.00  0.00    -0.335 OA
ATOM     14  C1* UNL     1      37.211 -23.688 -14.110  0.00  0.00    +0.199 C 
ATOM     15  C3* UNL     1      37.123 -25.331 -12.413  0.00  0.00    +0.144 C 
ATOM     16  C2* UNL     1      36.278 -24.252 -13.051  0.00  0.00    +0.083 C 
ATOM     17  C4* UNL     1      37.961 -25.844 -13.575  0.00  0.00    +0.173 C 
BRANCH  15  18
ATOM     18  O3* UNL     1      37.970 -24.754 -11.420  0.00  0.00    -0.382 OA
ATOM     19  H3* UNL     1      38.650 -24.214 -11.851  0.00  0.00    +0.210 HD
ENDBRANCH  15  18
BRANCH  17  20
ATOM     20  C5* UNL     1      37.286 -26.975 -14.339  0.00  0.00    +0.169 C 
BRANCH  20  21
ATOM     21  O5* UNL     1      37.372 -26.706 -15.728  0.00  0.00    -0.379 OA
ATOM     22  H5* UNL     1      38.275 -26.879 -16.037  0.00  0.00    +0.211 HD
ENDBRANCH  20  21
ENDBRANCH  17  20
ENDBRANCH   3  14
BRANCH  10  23
ATOM     23  O   UNL     1      32.968 -21.569 -20.184  0.00  0.00    -0.434 OA
BRANCH  23  24
ATOM     24  C   UNL     1      32.987 -20.148 -20.201  0.00  0.00    +0.210 C 
BRANCH  24  25
ATOM     25  C   UNL     1      33.763 -19.681 -21.425  0.00  0.00    +0.048 C 
BRANCH  25  26
ATOM     26  C   UNL     1      35.229 -19.409 -21.091  0.00  0.00    +0.004 C 
BRANCH  26  27
ATOM     27  C   UNL     1      35.855 -18.440 -22.096  0.00  0.00    +0.000 C 
BRANCH  27  28
ATOM     28  C   UNL     1      34.860 -17.423 -22.664  0.00  0.00    +0.000 C 
BRANCH  28  29
ATOM     29  C   UNL     1      34.881 -17.340 -24.191  0.00  0.00    +0.000 C 
ATOM     30  C   UNL     1      34.496 -18.669 -24.823  0.00  0.00    +0.000 C 
ENDBRANCH  28  29
ENDBRANCH  27  28
ENDBRANCH  26  27
ENDBRANCH  25  26
ENDBRANCH  24  25
ENDBRANCH  23  24
ENDBRANCH  10  23
TORSDOF 11
ENDMDL
MODEL 3
REMARK VINA RESULT:      -9.1      9.133     14.442
REMARK  Name = 51003457
REMARK  11 active torsions:
REMARK  status: ('A' for Active; 'I' for Inactive)
REMARK    1  A    between atoms: N_3  and  C1*_14
REMARK    2  A    between atoms: C_10  and  O_23
REMARK    3  A    between atoms: C3*_15  and  O3*_18
REMARK    4  A    between atoms: C4*_17  and  C5*_20
REMARK    5  A    between atoms: C5*_20  and  O5*_21
REMARK    6  A    between atoms: O_23  and  C_24
REMARK    7  A    between atoms: C_24  and  C_25
REMARK    8  A    between atoms: C_25  and  C_26
REMARK    9  A    between atoms: C_26  and  C_27
REMARK   10  A    between atoms: C_27  and  C_28
REMARK   11  A    between atoms: C_28  and  C_29
REMARK                            x       y       z     vdW  Elec       q    Type
REMARK                         _______ _______ _______ _____ _____    ______ ____
ROOT
ATOM      1  O   UNL     1      32.422 -24.712 -14.114  0.00  0.00    -0.252 OA
ATOM      2  O   UNL     1      34.932 -21.946 -19.325  0.00  0.00    -0.226 OA
ATOM      3  N   UNL     1      34.617 -24.355 -14.805  0.00  0.00    -0.220 N 
ATOM      4  N   UNL     1      32.807 -23.656 -16.105  0.00  0.00    -0.241 N 
ATOM      5  N   UNL     1      34.939 -23.196 -16.992  0.00  0.00    -0.220 NA
ATOM      6  N   UNL     1      33.042 -22.577 -18.124  0.00  0.00    -0.223 N 
ATOM      7  C   UNL     1      35.531 -23.831 -15.816  0.00  0.00    +0.228 C 
ATOM      8  C   UNL     1      33.230 -24.278 -14.938  0.00  0.00    +0.313 C 
ATOM      9  C   UNL     1      33.658 -23.151 -17.059  0.00  0.00    +0.194 C 
ATOM     10  C   UNL     1      33.713 -22.007 -19.195  0.00  0.00    +0.407 C 
ATOM     11  H   UNL     1      31.838 -23.571 -16.259  0.00  0.00    +0.159 HD
ATOM     12  H   UNL     1      32.058 -22.563 -18.136  0.00  0.00    +0.161 HD
ENDROOT
BRANCH   3  14
ATOM     13  O4* UNL     1      35.206 -24.012 -12.568  0.00  0.00    -0.335 OA
ATOM     14  C1* UNL     1      35.164 -24.972 -13.632  0.00  0.00    +0.199 C 
ATOM     15  C3* UNL     1      37.200 -25.291 -12.475  0.00  0.00    +0.144 C 
ATOM     16  C2* UNL     1      36.581 -25.481 -13.840  0.00  0.00    +0.083 C 
ATOM     17  C4* UNL     1      36.510 -24.038 -11.954  0.00  0.00    +0.173 C 
BRANCH  15  18
ATOM     18  O3* UNL     1      36.878 -26.404 -11.642  0.00  0.00    -0.382 OA
ATOM     19  H3* UNL     1      37.691 -26.762 -11.254  0.00  0.00    +0.210 HD
ENDBRANCH  15  18
BRANCH  17  20
ATOM     20  C5* UNL     1      37.236 -22.757 -12.342  0.00  0.00    +0.169 C 
BRANCH  20  21
ATOM     21  O5* UNL     1      38.509 -22.744 -11.717  0.00  0.00    -0.379 OA
ATOM     22  H5* UNL     1      38.397 -22.732 -10.753  0.00  0.00    +0.211 HD
ENDBRANCH  20  21
ENDBRANCH  17  20
ENDBRANCH   3  14
BRANCH  10  23
ATOM     23  O   UNL     1      32.815 -21.515 -20.105  0.00  0.00    -0.434 OA
BRANCH  23  24
ATOM     24  C   UNL     1      32.870 -20.115 -20.350  0.00  0.00    +0.210 C 
BRANCH  24  25
ATOM     25  C   UNL     1      34.020 -19.828 -21.305  0.00  0.00    +0.048 C 
BRANCH  25  26
ATOM     26  C   UNL     1      34.487 -18.377 -21.203  0.00  0.00    +0.004 C 
BRANCH  26  27
ATOM     27  C   UNL     1      34.822 -17.805 -22.583  0.00  0.00    +0.000 C 
BRANCH  27  28
ATOM     28  C   UNL     1      34.851 -18.862 -23.691  0.00  0.00    +0.000 C 
BRANCH  28  29
ATOM     29  C   UNL     1      34.448 -18.317 -25.061  0.00  0.00    +0.000 C 
ATOM     30  C   UNL     1      34.525 -16.798 -25.098  0.00  0.00    +0.000 C 
ENDBRANCH  28  29
ENDBRANCH  27  28
ENDBRANCH  26  27
ENDBRANCH  25  26
ENDBRANCH  24  25
ENDBRANCH  23  24
ENDBRANCH  10  23
TORSDOF 11
ENDMDL
MODEL 4
REMARK VINA RESULT:      -9.0      8.825     14.419
REMARK  Name = 51003457
REMARK  11 active torsions:
REMARK  status: ('A' for Active; 'I' for Inactive)
REMARK    1  A    between atoms: N_3  and  C1*_14
REMARK    2  A    between atoms: C_10  and  O_23
REMARK    3  A    between atoms: C3*_15  and  O3*_18
REMARK    4  A    between atoms: C4*_17  and  C5*_20
REMARK    5  A    between atoms: C5*_20  and  O5*_21
REMARK    6  A    between atoms: O_23  and  C_24
REMARK    7  A    between atoms: C_24  and  C_25
REMARK    8  A    between atoms: C_25  and  C_26
REMARK    9  A    between atoms: C_26  and  C_27
REMARK   10  A    between atoms: C_27  and  C_28
REMARK   11  A    between atoms: C_28  and  C_29
REMARK                            x       y       z     vdW  Elec       q    Type
REMARK                         _______ _______ _______ _____ _____    ______ ____
ROOT
ATOM      1  O   UNL     1      33.900 -24.252 -14.860  0.00  0.00    -0.252 OA
ATOM      2  O   UNL     1      36.905 -21.051 -19.531  0.00  0.00    -0.226 OA
ATOM      3  N   UNL     1      36.122 -23.625 -15.162  0.00  0.00    -0.220 N 
ATOM      4  N   UNL     1      34.486 -23.095 -16.743  0.00  0.00    -0.241 N 
ATOM      5  N   UNL     1      36.667 -22.367 -17.247  0.00  0.00    -0.220 NA
ATOM      6  N   UNL     1      34.928 -21.931 -18.678  0.00  0.00    -0.223 N 
ATOM      7  C   UNL     1      37.125 -22.968 -15.996  0.00  0.00    +0.228 C 
ATOM      8  C   UNL     1      34.778 -23.703 -15.529  0.00  0.00    +0.313 C 
ATOM      9  C   UNL     1      35.420 -22.466 -17.531  0.00  0.00    +0.194 C 
ATOM     10  C   UNL     1      35.697 -21.255 -19.611  0.00  0.00    +0.407 C 
ATOM     11  H   UNL     1      33.554 -23.117 -17.058  0.00  0.00    +0.159 HD
ATOM     12  H   UNL     1      33.965 -22.030 -18.857  0.00  0.00    +0.161 HD
ENDROOT
BRANCH   3  14
ATOM     13  O4* UNL     1      37.894 -23.850 -13.652  0.00  0.00    -0.335 OA
ATOM     14  C1* UNL     1      36.533 -24.214 -13.921  0.00  0.00    +0.199 C 
ATOM     15  C3* UNL     1      37.611 -26.121 -13.032  0.00  0.00    +0.144 C 
ATOM     16  C2* UNL     1      36.465 -25.732 -13.938  0.00  0.00    +0.083 C 
ATOM     17  C4* UNL     1      38.639 -25.029 -13.290  0.00  0.00    +0.173 C 
BRANCH  15  18
ATOM     18  O3* UNL     1      37.185 -26.075 -11.671  0.00  0.00    -0.382 OA
ATOM     19  H3* UNL     1      36.236 -26.271 -11.623  0.00  0.00    +0.210 HD
ENDBRANCH  15  18
BRANCH  17  20
ATOM     20  C5* UNL     1      39.579 -25.359 -14.442  0.00  0.00    +0.169 C 
BRANCH  20  21
ATOM     21  O5* UNL     1      40.831 -24.735 -14.207  0.00  0.00    -0.379 OA
ATOM     22  H5* UNL     1      41.407 -24.864 -14.976  0.00  0.00    +0.211 HD
ENDBRANCH  20  21
ENDBRANCH  17  20
ENDBRANCH   3  14
BRANCH  10  23
ATOM     23  O   UNL     1      34.912 -20.838 -20.656  0.00  0.00    -0.434 OA
BRANCH  23  24
ATOM     24  C   UNL     1      33.745 -20.104 -20.311  0.00  0.00    +0.210 C 
BRANCH  24  25
ATOM     25  C   UNL     1      33.646 -18.884 -21.216  0.00  0.00    +0.048 C 
BRANCH  25  26
ATOM     26  C   UNL     1      34.966 -18.118 -21.275  0.00  0.00    +0.004 C 
BRANCH  26  27
ATOM     27  C   UNL     1      35.385 -17.847 -22.722  0.00  0.00    +0.000 C 
BRANCH  27  28
ATOM     28  C   UNL     1      34.941 -18.939 -23.699  0.00  0.00    +0.000 C 
BRANCH  28  29
ATOM     29  C   UNL     1      34.380 -18.388 -25.011  0.00  0.00    +0.000 C 
ATOM     30  C   UNL     1      34.614 -16.890 -25.128  0.00  0.00    +0.000 C 
ENDBRANCH  28  29
ENDBRANCH  27  28
ENDBRANCH  26  27
ENDBRANCH  25  26
ENDBRANCH  24  25
ENDBRANCH  23  24
ENDBRANCH  10  23
TORSDOF 11
ENDMDL
MODEL 5
REMARK VINA RESULT:      -8.9      6.052      9.675
REMARK  Name = 51003457
REMARK  11 active torsions:
REMARK  status: ('A' for Active; 'I' for Inactive)
REMARK    1  A    between atoms: N_3  and  C1*_14
REMARK    2  A    between atoms: C_10  and  O_23
REMARK    3  A    between atoms: C3*_15  and  O3*_18
REMARK    4  A    between atoms: C4*_17  and  C5*_20
REMARK    5  A    between atoms: C5*_20  and  O5*_21
REMARK    6  A    between atoms: O_23  and  C_24
REMARK    7  A    between atoms: C_24  and  C_25
REMARK    8  A    between atoms: C_25  and  C_26
REMARK    9  A    between atoms: C_26  and  C_27
REMARK   10  A    between atoms: C_27  and  C_28
REMARK   11  A    between atoms: C_28  and  C_29
REMARK                            x       y       z     vdW  Elec       q    Type
REMARK                         _______ _______ _______ _____ _____    ______ ____
ROOT
ATOM      1  O   UNL     1      37.702 -19.179 -20.934  0.00  0.00    -0.252 OA
ATOM      2  O   UNL     1      32.650 -22.401 -18.654  0.00  0.00    -0.226 OA
ATOM      3  N   UNL     1      35.414 -19.000 -21.324  0.00  0.00    -0.220 N 
ATOM      4  N   UNL     1      36.272 -20.599 -19.854  0.00  0.00    -0.241 N 
ATOM      5  N   UNL     1      33.931 -20.592 -20.101  0.00  0.00    -0.220 NA
ATOM      6  N   UNL     1      34.954 -22.086 -18.692  0.00  0.00    -0.223 N 
ATOM      7  C   UNL     1      34.064 -19.489 -21.051  0.00  0.00    +0.228 C 
ATOM      8  C   UNL     1      36.546 -19.556 -20.728  0.00  0.00    +0.313 C 
ATOM      9  C   UNL     1      35.007 -21.060 -19.581  0.00  0.00    +0.194 C 
ATOM     10  C   UNL     1      33.781 -22.697 -18.280  0.00  0.00    +0.407 C 
ATOM     11  H   UNL     1      37.030 -21.034 -19.401  0.00  0.00    +0.159 HD
ATOM     12  H   UNL     1      35.803 -22.415 -18.318  0.00  0.00    +0.161 HD
ENDROOT
BRANCH   3  14
ATOM     13  O4* UNL     1      35.343 -16.674 -21.554  0.00  0.00    -0.335 OA
ATOM     14  C1* UNL     1      35.581 -17.910 -22.240  0.00  0.00    +0.199 C 
ATOM     15  C3* UNL     1      34.367 -16.510 -23.708  0.00  0.00    +0.144 C 
ATOM     16  C2* UNL     1      34.614 -17.971 -23.411  0.00  0.00    +0.083 C 
ATOM     17  C4* UNL     1      34.444 -15.862 -22.333  0.00  0.00    +0.173 C 
BRANCH  15  18
ATOM     18  O3* UNL     1      35.410 -16.006 -24.541  0.00  0.00    -0.382 OA
ATOM     19  H3* UNL     1      36.270 -16.250 -24.165  0.00  0.00    +0.210 HD
ENDBRANCH  15  18
BRANCH  17  20
ATOM     20  C5* UNL     1      33.101 -15.831 -21.617  0.00  0.00    +0.169 C 
BRANCH  20  21
ATOM     21  O5* UNL     1      32.338 -14.745 -22.116  0.00  0.00    -0.379 OA
ATOM     22  H5* UNL     1      32.432 -13.983 -21.524  0.00  0.00    +0.211 HD
ENDBRANCH  20  21
ENDBRANCH  17  20
ENDBRANCH   3  14
BRANCH  10  23
ATOM     23  O   UNL     1      34.060 -23.695 -17.382  0.00  0.00    -0.434 OA
BRANCH  23  24
ATOM     24  C   UNL     1      33.934 -23.357 -16.007  0.00  0.00    +0.210 C 
BRANCH  24  25
ATOM     25  C   UNL     1      32.581 -23.839 -15.503  0.00  0.00    +0.048 C 
BRANCH  25  26
ATOM     26  C   UNL     1      31.965 -22.853 -14.512  0.00  0.00    +0.004 C 
BRANCH  26  27
ATOM     27  C   UNL     1      30.452 -22.742 -14.708  0.00  0.00    +0.000 C 
BRANCH  27  28
ATOM     28  C   UNL     1      29.991 -23.115 -16.121  0.00  0.00    +0.000 C 
BRANCH  28  29
ATOM     29  C   UNL     1      28.944 -24.229 -16.144  0.00  0.00    +0.000 C 
ATOM     30  C   UNL     1      28.938 -25.011 -14.839  0.00  0.00    +0.000 C 
ENDBRANCH  28  29
ENDBRANCH  27  28
ENDBRANCH  26  27
ENDBRANCH  25  26
ENDBRANCH  24  25
ENDBRANCH  23  24
ENDBRANCH  10  23
TORSDOF 11
ENDMDL
MODEL 6
REMARK VINA RESULT:      -8.9      8.491     14.156
REMARK  Name = 51003457
REMARK  11 active torsions:
REMARK  status: ('A' for Active; 'I' for Inactive)
REMARK    1  A    between atoms: N_3  and  C1*_14
REMARK    2  A    between atoms: C_10  and  O_23
REMARK    3  A    between atoms: C3*_15  and  O3*_18
REMARK    4  A    between atoms: C4*_17  and  C5*_20
REMARK    5  A    between atoms: C5*_20  and  O5*_21
REMARK    6  A    between atoms: O_23  and  C_24
REMARK    7  A    between atoms: C_24  and  C_25
REMARK    8  A    between atoms: C_25  and  C_26
REMARK    9  A    between atoms: C_26  and  C_27
REMARK   10  A    between atoms: C_27  and  C_28
REMARK   11  A    between atoms: C_28  and  C_29
REMARK                            x       y       z     vdW  Elec       q    Type
REMARK                         _______ _______ _______ _____ _____    ______ ____
ROOT
ATOM      1  O   UNL     1      37.855 -23.123 -15.150  0.00  0.00    -0.252 OA
ATOM      2  O   UNL     1      33.076 -22.101 -19.299  0.00  0.00    -0.226 OA
ATOM      3  N   UNL     1      35.679 -23.942 -15.278  0.00  0.00    -0.220 N 
ATOM      4  N   UNL     1      36.504 -22.436 -16.861  0.00  0.00    -0.241 N 
ATOM      5  N   UNL     1      34.279 -23.135 -17.180  0.00  0.00    -0.220 NA
ATOM      6  N   UNL     1      35.263 -21.664 -18.639  0.00  0.00    -0.223 N 
ATOM      7  C   UNL     1      34.397 -23.958 -15.977  0.00  0.00    +0.228 C 
ATOM      8  C   UNL     1      36.758 -23.171 -15.711  0.00  0.00    +0.313 C 
ATOM      9  C   UNL     1      35.305 -22.450 -17.533  0.00  0.00    +0.194 C 
ATOM     10  C   UNL     1      34.153 -21.535 -19.458  0.00  0.00    +0.407 C 
ATOM     11  H   UNL     1      37.227 -21.870 -17.218  0.00  0.00    +0.159 HD
ATOM     12  H   UNL     1      36.072 -21.155 -18.874  0.00  0.00    +0.161 HD
ENDROOT
BRANCH   3  14
ATOM     13  O4* UNL     1      35.551 -23.953 -12.943  0.00  0.00    -0.335 OA
ATOM     14  C1* UNL     1      35.835 -24.747 -14.102  0.00  0.00    +0.199 C 
ATOM     15  C3* UNL     1      37.414 -25.332 -12.443  0.00  0.00    +0.144 C 
ATOM     16  C2* UNL     1      37.245 -25.292 -13.944  0.00  0.00    +0.083 C 
ATOM     17  C4* UNL     1      36.602 -24.133 -11.973  0.00  0.00    +0.173 C 
BRANCH  15  18
ATOM     18  O3* UNL     1      36.846 -26.535 -11.927  0.00  0.00    -0.382 OA
ATOM     19  H3* UNL     1      36.059 -26.768 -12.444  0.00  0.00    +0.210 HD
ENDBRANCH  15  18
BRANCH  17  20
ATOM     20  C5* UNL     1      37.417 -22.848 -11.922  0.00  0.00    +0.169 C 
BRANCH  20  21
ATOM     21  O5* UNL     1      38.763 -23.170 -11.612  0.00  0.00    -0.379 OA
ATOM     22  H5* UNL     1      38.811 -23.534 -10.714  0.00  0.00    +0.211 HD
ENDBRANCH  20  21
ENDBRANCH  17  20
ENDBRANCH   3  14
BRANCH  10  23
ATOM     23  O   UNL     1      34.425 -20.672 -20.488  0.00  0.00    -0.434 OA
BRANCH  23  24
ATOM     24  C   UNL     1      35.761 -20.192 -20.570  0.00  0.00    +0.210 C 
BRANCH  24  25
ATOM     25  C   UNL     1      35.753 -18.828 -21.246  0.00  0.00    +0.048 C 
BRANCH  25  26
ATOM     26  C   UNL     1      34.595 -18.695 -22.233  0.00  0.00    +0.004 C 
BRANCH  26  27
ATOM     27  C   UNL     1      35.062 -18.929 -23.672  0.00  0.00    +0.000 C 
BRANCH  27  28
ATOM     28  C   UNL     1      34.810 -17.734 -24.596  0.00  0.00    +0.000 C 
BRANCH  28  29
ATOM     29  C   UNL     1      34.933 -16.383 -23.890  0.00  0.00    +0.000 C 
ATOM     30  C   UNL     1      33.785 -15.457 -24.262  0.00  0.00    +0.000 C 
ENDBRANCH  28  29
ENDBRANCH  27  28
ENDBRANCH  26  27
ENDBRANCH  25  26
ENDBRANCH  24  25
ENDBRANCH  23  24
ENDBRANCH  10  23
TORSDOF 11
ENDMDL
MODEL 7
REMARK VINA RESULT:      -8.8      8.498     14.443
REMARK  Name = 51003457
REMARK  11 active torsions:
REMARK  status: ('A' for Active; 'I' for Inactive)
REMARK    1  A    between atoms: N_3  and  C1*_14
REMARK    2  A    between atoms: C_10  and  O_23
REMARK    3  A    between atoms: C3*_15  and  O3*_18
REMARK    4  A    between atoms: C4*_17  and  C5*_20
REMARK    5  A    between atoms: C5*_20  and  O5*_21
REMARK    6  A    between atoms: O_23  and  C_24
REMARK    7  A    between atoms: C_24  and  C_25
REMARK    8  A    between atoms: C_25  and  C_26
REMARK    9  A    between atoms: C_26  and  C_27
REMARK   10  A    between atoms: C_27  and  C_28
REMARK   11  A    between atoms: C_28  and  C_29
REMARK                            x       y       z     vdW  Elec       q    Type
REMARK                         _______ _______ _______ _____ _____    ______ ____
ROOT
ATOM      1  O   UNL     1      33.860 -24.325 -14.893  0.00  0.00    -0.252 OA
ATOM      2  O   UNL     1      36.690 -20.910 -19.521  0.00  0.00    -0.226 OA
ATOM      3  N   UNL     1      36.058 -23.630 -15.216  0.00  0.00    -0.220 N 
ATOM      4  N   UNL     1      34.380 -23.099 -16.751  0.00  0.00    -0.241 N 
ATOM      5  N   UNL     1      36.531 -22.298 -17.273  0.00  0.00    -0.220 NA
ATOM      6  N   UNL     1      34.754 -21.868 -18.659  0.00  0.00    -0.223 N 
ATOM      7  C   UNL     1      37.028 -22.922 -16.049  0.00  0.00    +0.228 C 
ATOM      8  C   UNL     1      34.710 -23.734 -15.561  0.00  0.00    +0.313 C 
ATOM      9  C   UNL     1      35.281 -22.422 -17.537  0.00  0.00    +0.194 C 
ATOM     10  C   UNL     1      35.488 -21.144 -19.586  0.00  0.00    +0.407 C 
ATOM     11  H   UNL     1      33.442 -23.136 -17.050  0.00  0.00    +0.159 HD
ATOM     12  H   UNL     1      33.791 -21.987 -18.824  0.00  0.00    +0.161 HD
ENDROOT
BRANCH   3  14
ATOM     13  O4* UNL     1      37.859 -23.839 -13.738  0.00  0.00    -0.335 OA
ATOM     14  C1* UNL     1      36.508 -24.243 -14.001  0.00  0.00    +0.199 C 
ATOM     15  C3* UNL     1      37.667 -26.137 -13.190  0.00  0.00    +0.144 C 
ATOM     16  C2* UNL     1      36.495 -25.762 -14.067  0.00  0.00    +0.083 C 
ATOM     17  C4* UNL     1      38.651 -25.001 -13.426  0.00  0.00    +0.173 C 
BRANCH  15  18
ATOM     18  O3* UNL     1      37.259 -26.151 -11.823  0.00  0.00    -0.382 OA
ATOM     19  H3* UNL     1      36.300 -26.290 -11.773  0.00  0.00    +0.210 HD
ENDBRANCH  15  18
BRANCH  17  20
ATOM     20  C5* UNL     1      39.586 -25.259 -14.599  0.00  0.00    +0.169 C 
BRANCH  20  21
ATOM     21  O5* UNL     1      39.999 -26.616 -14.568  0.00  0.00    -0.379 OA
ATOM     22  H5* UNL     1      40.336 -26.832 -13.684  0.00  0.00    +0.211 HD
ENDBRANCH  20  21
ENDBRANCH  17  20
ENDBRANCH   3  14
BRANCH  10  23
ATOM     23  O   UNL     1      34.673 -20.719 -20.603  0.00  0.00    -0.434 OA
BRANCH  23  24
ATOM     24  C   UNL     1      34.893 -19.396 -21.075  0.00  0.00    +0.210 C 
BRANCH  24  25
ATOM     25  C   UNL     1      34.581 -19.346 -22.564  0.00  0.00    +0.048 C 
BRANCH  25  26
ATOM     26  C   UNL     1      35.402 -18.272 -23.276  0.00  0.00    +0.004 C 
BRANCH  26  27
ATOM     27  C   UNL     1      35.462 -16.984 -22.452  0.00  0.00    +0.000 C 
BRANCH  27  28
ATOM     28  C   UNL     1      34.658 -15.832 -23.064  0.00  0.00    +0.000 C 
BRANCH  28  29
ATOM     29  C   UNL     1      34.382 -14.694 -22.080  0.00  0.00    +0.000 C 
ATOM     30  C   UNL     1      34.378 -15.193 -20.643  0.00  0.00    +0.000 C 
ENDBRANCH  28  29
ENDBRANCH  27  28
ENDBRANCH  26  27
ENDBRANCH  25  26
ENDBRANCH  24  25
ENDBRANCH  23  24
ENDBRANCH  10  23
TORSDOF 11
ENDMDL
MODEL 8
REMARK VINA RESULT:      -8.7      7.540     12.994
REMARK  Name = 51003457
REMARK  11 active torsions:
REMARK  status: ('A' for Active; 'I' for Inactive)
REMARK    1  A    between atoms: N_3  and  C1*_14
REMARK    2  A    between atoms: C_10  and  O_23
REMARK    3  A    between atoms: C3*_15  and  O3*_18
REMARK    4  A    between atoms: C4*_17  and  C5*_20
REMARK    5  A    between atoms: C5*_20  and  O5*_21
REMARK    6  A    between atoms: O_23  and  C_24
REMARK    7  A    between atoms: C_24  and  C_25
REMARK    8  A    between atoms: C_25  and  C_26
REMARK    9  A    between atoms: C_26  and  C_27
REMARK   10  A    between atoms: C_27  and  C_28
REMARK   11  A    between atoms: C_28  and  C_29
REMARK                            x       y       z     vdW  Elec       q    Type
REMARK                         _______ _______ _______ _____ _____    ______ ____
ROOT
ATOM      1  O   UNL     1      34.770 -24.124 -15.883  0.00  0.00    -0.252 OA
ATOM      2  O   UNL     1      32.690 -20.343 -20.623  0.00  0.00    -0.226 OA
ATOM      3  N   UNL     1      32.648 -23.385 -16.490  0.00  0.00    -0.220 N 
ATOM      4  N   UNL     1      34.545 -22.751 -17.696  0.00  0.00    -0.241 N 
ATOM      5  N   UNL     1      32.501 -21.889 -18.483  0.00  0.00    -0.220 NA
ATOM      6  N   UNL     1      34.470 -21.382 -19.545  0.00  0.00    -0.223 N 
ATOM      7  C   UNL     1      31.821 -22.592 -17.396  0.00  0.00    +0.228 C 
ATOM      8  C   UNL     1      34.034 -23.473 -16.626  0.00  0.00    +0.313 C 
ATOM      9  C   UNL     1      33.776 -22.010 -18.560  0.00  0.00    +0.194 C 
ATOM     10  C   UNL     1      33.888 -20.587 -20.519  0.00  0.00    +0.407 C 
ATOM     11  H   UNL     1      35.518 -22.772 -17.846  0.00  0.00    +0.159 HD
ATOM     12  H   UNL     1      35.446 -21.501 -19.568  0.00  0.00    +0.161 HD
ENDROOT
BRANCH   3  14
ATOM     13  O4* UNL     1      30.775 -24.651 -15.890  0.00  0.00    -0.335 OA
ATOM     14  C1* UNL     1      32.013 -24.099 -15.421  0.00  0.00    +0.199 C 
ATOM     15  C3* UNL     1      30.423 -23.833 -13.693  0.00  0.00    +0.144 C 
ATOM     16  C2* UNL     1      31.691 -23.211 -14.230  0.00  0.00    +0.083 C 
ATOM     17  C4* UNL     1      29.729 -24.341 -14.949  0.00  0.00    +0.173 C 
BRANCH  15  18
ATOM     18  O3* UNL     1      30.748 -24.930 -12.841  0.00  0.00    -0.382 OA
ATOM     19  H3* UNL     1      31.685 -24.878 -12.592  0.00  0.00    +0.210 HD
ENDBRANCH  15  18
BRANCH  17  20
ATOM     20  C5* UNL     1      28.820 -23.299 -15.587  0.00  0.00    +0.169 C 
BRANCH  20  21
ATOM     21  O5* UNL     1      28.449 -23.744 -16.881  0.00  0.00    -0.379 OA
ATOM     22  H5* UNL     1      28.550 -24.708 -16.934  0.00  0.00    +0.211 HD
ENDBRANCH  20  21
ENDBRANCH  17  20
ENDBRANCH   3  14
BRANCH  10  23
ATOM     23  O   UNL     1      34.850 -20.098 -21.364  0.00  0.00    -0.434 OA
BRANCH  23  24
ATOM     24  C   UNL     1      34.391 -19.295 -22.444  0.00  0.00    +0.210 C 
BRANCH  24  25
ATOM     25  C   UNL     1      35.460 -18.266 -22.783  0.00  0.00    +0.048 C 
BRANCH  25  26
ATOM     26  C   UNL     1      34.998 -16.846 -22.462  0.00  0.00    +0.004 C 
BRANCH  26  27
ATOM     27  C   UNL     1      34.868 -16.633 -20.952  0.00  0.00    +0.000 C 
BRANCH  27  28
ATOM     28  C   UNL     1      34.404 -15.224 -20.573  0.00  0.00    +0.000 C 
BRANCH  28  29
ATOM     29  C   UNL     1      32.884 -15.055 -20.608  0.00  0.00    +0.000 C 
ATOM     30  C   UNL     1      32.455 -14.133 -21.741  0.00  0.00    +0.000 C 
ENDBRANCH  28  29
ENDBRANCH  27  28
ENDBRANCH  26  27
ENDBRANCH  25  26
ENDBRANCH  24  25
ENDBRANCH  23  24
ENDBRANCH  10  23
TORSDOF 11
ENDMDL
MODEL 9
REMARK VINA RESULT:      -8.7      6.025      9.817
REMARK  Name = 51003457
REMARK  11 active torsions:
REMARK  status: ('A' for Active; 'I' for Inactive)
REMARK    1  A    between atoms: N_3  and  C1*_14
REMARK    2  A    between atoms: C_10  and  O_23
REMARK    3  A    between atoms: C3*_15  and  O3*_18
REMARK    4  A    between atoms: C4*_17  and  C5*_20
REMARK    5  A    between atoms: C5*_20  and  O5*_21
REMARK    6  A    between atoms: O_23  and  C_24
REMARK    7  A    between atoms: C_24  and  C_25
REMARK    8  A    between atoms: C_25  and  C_26
REMARK    9  A    between atoms: C_26  and  C_27
REMARK   10  A    between atoms: C_27  and  C_28
REMARK   11  A    between atoms: C_28  and  C_29
REMARK                            x       y       z     vdW  Elec       q    Type
REMARK                         _______ _______ _______ _____ _____    ______ ____
ROOT
ATOM      1  O   UNL     1      37.726 -19.185 -20.912  0.00  0.00    -0.252 OA
ATOM      2  O   UNL     1      32.635 -22.368 -18.665  0.00  0.00    -0.226 OA
ATOM      3  N   UNL     1      35.436 -18.923 -21.238  0.00  0.00    -0.220 N 
ATOM      4  N   UNL     1      36.280 -20.613 -19.865  0.00  0.00    -0.241 N 
ATOM      5  N   UNL     1      33.935 -20.529 -20.055  0.00  0.00    -0.220 NA
ATOM      6  N   UNL     1      34.946 -22.116 -18.743  0.00  0.00    -0.223 N 
ATOM      7  C   UNL     1      34.080 -19.386 -20.955  0.00  0.00    +0.228 C 
ATOM      8  C   UNL     1      36.565 -19.538 -20.696  0.00  0.00    +0.313 C 
ATOM      9  C   UNL     1      35.008 -21.051 -19.584  0.00  0.00    +0.194 C 
ATOM     10  C   UNL     1      33.765 -22.712 -18.332  0.00  0.00    +0.407 C 
ATOM     11  H   UNL     1      37.036 -21.091 -19.452  0.00  0.00    +0.159 HD
ATOM     12  H   UNL     1      35.793 -22.487 -18.405  0.00  0.00    +0.161 HD
ENDROOT
BRANCH   3  14
ATOM     13  O4* UNL     1      35.336 -16.591 -21.380  0.00  0.00    -0.335 OA
ATOM     14  C1* UNL     1      35.614 -17.796 -22.106  0.00  0.00    +0.199 C 
ATOM     15  C3* UNL     1      34.425 -16.358 -23.556  0.00  0.00    +0.144 C 
ATOM     16  C2* UNL     1      34.685 -17.825 -23.308  0.00  0.00    +0.083 C 
ATOM     17  C4* UNL     1      34.448 -15.762 -22.156  0.00  0.00    +0.173 C 
BRANCH  15  18
ATOM     18  O3* UNL     1      35.485 -15.807 -24.336  0.00  0.00    -0.382 OA
ATOM     19  H3* UNL     1      35.367 -16.060 -25.265  0.00  0.00    +0.210 HD
ENDBRANCH  15  18
BRANCH  17  20
ATOM     20  C5* UNL     1      33.084 -15.779 -21.481  0.00  0.00    +0.169 C 
BRANCH  20  21
ATOM     21  O5* UNL     1      32.299 -14.720 -22.005  0.00  0.00    -0.379 OA
ATOM     22  H5* UNL     1      31.388 -14.802 -21.684  0.00  0.00    +0.211 HD
ENDBRANCH  20  21
ENDBRANCH  17  20
ENDBRANCH   3  14
BRANCH  10  23
ATOM     23  O   UNL     1      34.035 -23.759 -17.489  0.00  0.00    -0.434 OA
BRANCH  23  24
ATOM     24  C   UNL     1      33.752 -23.547 -16.112  0.00  0.00    +0.210 C 
BRANCH  24  25
ATOM     25  C   UNL     1      35.062 -23.537 -15.336  0.00  0.00    +0.048 C 
BRANCH  25  26
ATOM     26  C   UNL     1      35.292 -24.856 -14.601  0.00  0.00    +0.004 C 
BRANCH  26  27
ATOM     27  C   UNL     1      36.623 -25.492 -15.009  0.00  0.00    +0.000 C 
BRANCH  27  28
ATOM     28  C   UNL     1      37.834 -24.594 -14.743  0.00  0.00    +0.000 C 
BRANCH  28  29
ATOM     29  C   UNL     1      38.667 -25.036 -13.539  0.00  0.00    +0.000 C 
ATOM     30  C   UNL     1      38.198 -24.357 -12.261  0.00  0.00    +0.000 C 
ENDBRANCH  28  29
ENDBRANCH  27  28
ENDBRANCH  26  27
ENDBRANCH  25  26
ENDBRANCH  24  25
ENDBRANCH  23  24
ENDBRANCH  10  23
TORSDOF 11
ENDMDL
