MODEL 1
REMARK VINA RESULT:      -8.2      0.000      0.000
REMARK  Name = 159603
REMARK  6 active torsions:
REMARK  status: ('A' for Active; 'I' for Inactive)
REMARK    1  A    between atoms: N_1  and  C_17
REMARK    2  A    between atoms: C_6  and  C_23
REMARK    3  A    between atoms: C_17  and  C_18
REMARK    4  A    between atoms: C_18  and  O_21
REMARK    5  A    between atoms: C_23  and  O_24
REMARK    6  A    between atoms: O_24  and  C_25
REMARK                            x       y       z     vdW  Elec       q    Type
REMARK                         _______ _______ _______ _____ _____    ______ ____
ROOT
ATOM      1  N   UNL     1      35.362 -23.613 -14.818  0.00  0.00    -0.259 N 
ATOM      2  N   UNL     1      33.269 -24.243 -14.424  0.00  0.00    -0.383 NA
ATOM      3  N   UNL     1      32.682 -22.810 -17.791  0.00  0.00    -0.385 NA
ATOM      4  N   UNL     1      31.039 -23.813 -16.377  0.00  0.00    -0.331 N 
ATOM      5  C   UNL     1      34.654 -23.247 -15.936  0.00  0.00    +0.090 C 
ATOM      6  C   UNL     1      34.492 -24.203 -13.945  0.00  0.00    +0.194 C 
ATOM      7  C   UNL     1      33.353 -23.651 -15.662  0.00  0.00    +0.189 C 
ATOM      8  C   UNL     1      35.007 -22.614 -17.141  0.00  0.00    +0.046 C 
ATOM      9  C   UNL     1      33.947 -22.421 -18.050  0.00  0.00    +0.134 C 
ATOM     10  C   UNL     1      32.367 -23.419 -16.618  0.00  0.00    +0.208 C 
ATOM     11  C   UNL     1      36.325 -22.202 -17.425  0.00  0.00    +0.004 C 
ATOM     12  C   UNL     1      34.259 -21.797 -19.254  0.00  0.00    +0.032 C 
ATOM     13  C   UNL     1      36.594 -21.583 -18.639  0.00  0.00    +0.000 C 
ATOM     14  C   UNL     1      35.562 -21.381 -19.553  0.00  0.00    +0.003 C 
ATOM     15  H   UNL     1      30.345 -23.648 -17.055  0.00  0.00    +0.145 HD
ATOM     16  H   UNL     1      30.802 -24.255 -15.530  0.00  0.00    +0.145 HD
ENDROOT
BRANCH   1  17
ATOM     17  C   UNL     1      36.772 -23.433 -14.554  0.00  0.00    +0.124 C 
BRANCH  17  18
ATOM     18  C   UNL     1      37.661 -24.649 -14.890  0.00  0.00    +0.107 C 
ATOM     19  C   UNL     1      38.043 -25.373 -13.593  0.00  0.00    +0.031 C 
ATOM     20  C   UNL     1      38.929 -24.271 -15.657  0.00  0.00    +0.031 C 
BRANCH  18  21
ATOM     21  O   UNL     1      36.928 -25.574 -15.696  0.00  0.00    -0.385 OA
ATOM     22  H   UNL     1      36.264 -25.094 -16.216  0.00  0.00    +0.210 HD
ENDBRANCH  18  21
ENDBRANCH  17  18
ENDBRANCH   1  17
BRANCH   6  23
ATOM     23  C   UNL     1      34.919 -24.720 -12.629  0.00  0.00    +0.217 C 
BRANCH  23  24
ATOM     24  O   UNL     1      34.916 -23.628 -11.711  0.00  0.00    -0.345 OA
BRANCH  24  25
ATOM     25  C   UNL     1      36.008 -23.709 -10.809  0.00  0.00    +0.143 C 
ATOM     26  C   UNL     1      37.133 -22.831 -11.316  0.00  0.00    +0.035 C 
ENDBRANCH  24  25
ENDBRANCH  23  24
ENDBRANCH   6  23
TORSDOF 6
ENDMDL
MODEL 2
REMARK VINA RESULT:      -8.2      1.676      4.122
REMARK  Name = 159603
REMARK  6 active torsions:
REMARK  status: ('A' for Active; 'I' for Inactive)
REMARK    1  A    between atoms: N_1  and  C_17
REMARK    2  A    between atoms: C_6  and  C_23
REMARK    3  A    between atoms: C_17  and  C_18
REMARK    4  A    between atoms: C_18  and  O_21
REMARK    5  A    between atoms: C_23  and  O_24
REMARK    6  A    between atoms: O_24  and  C_25
REMARK                            x       y       z     vdW  Elec       q    Type
REMARK                         _______ _______ _______ _____ _____    ______ ____
ROOT
ATOM      1  N   UNL     1      35.279 -23.124 -14.976  0.00  0.00    -0.259 N 
ATOM      2  N   UNL     1      35.827 -22.876 -17.114  0.00  0.00    -0.383 NA
ATOM      3  N   UNL     1      32.156 -23.014 -17.603  0.00  0.00    -0.385 NA
ATOM      4  N   UNL     1      33.801 -22.755 -19.316  0.00  0.00    -0.331 N 
ATOM      5  C   UNL     1      34.088 -23.115 -15.660  0.00  0.00    +0.090 C 
ATOM      6  C   UNL     1      36.287 -22.978 -15.888  0.00  0.00    +0.194 C 
ATOM      7  C   UNL     1      34.460 -22.959 -16.990  0.00  0.00    +0.189 C 
ATOM      8  C   UNL     1      32.744 -23.225 -15.263  0.00  0.00    +0.046 C 
ATOM      9  C   UNL     1      31.803 -23.165 -16.310  0.00  0.00    +0.134 C 
ATOM     10  C   UNL     1      33.463 -22.911 -17.960  0.00  0.00    +0.208 C 
ATOM     11  C   UNL     1      32.360 -23.382 -13.916  0.00  0.00    +0.004 C 
ATOM     12  C   UNL     1      30.462 -23.270 -15.955  0.00  0.00    +0.032 C 
ATOM     13  C   UNL     1      31.009 -23.484 -13.604  0.00  0.00    +0.000 C 
ATOM     14  C   UNL     1      30.062 -23.427 -14.623  0.00  0.00    +0.003 C 
ATOM     15  H   UNL     1      33.093 -22.721 -19.999  0.00  0.00    +0.145 HD
ATOM     16  H   UNL     1      34.745 -22.680 -19.583  0.00  0.00    +0.145 HD
ENDROOT
BRANCH   1  17
ATOM     17  C   UNL     1      35.492 -23.261 -13.553  0.00  0.00    +0.124 C 
BRANCH  17  18
ATOM     18  C   UNL     1      35.690 -24.709 -13.057  0.00  0.00    +0.107 C 
ATOM     19  C   UNL     1      37.012 -24.806 -12.287  0.00  0.00    +0.031 C 
ATOM     20  C   UNL     1      35.683 -25.736 -14.191  0.00  0.00    +0.031 C 
BRANCH  18  21
ATOM     21  O   UNL     1      34.641 -25.058 -12.153  0.00  0.00    -0.385 OA
ATOM     22  H   UNL     1      33.794 -24.733 -12.499  0.00  0.00    +0.210 HD
ENDBRANCH  18  21
ENDBRANCH  17  18
ENDBRANCH   1  17
BRANCH   6  23
ATOM     23  C   UNL     1      37.711 -22.946 -15.495  0.00  0.00    +0.217 C 
BRANCH  23  24
ATOM     24  O   UNL     1      38.218 -24.277 -15.586  0.00  0.00    -0.345 OA
BRANCH  24  25
ATOM     25  C   UNL     1      39.507 -24.380 -15.003  0.00  0.00    +0.143 C 
ATOM     26  C   UNL     1      39.767 -25.825 -14.634  0.00  0.00    +0.035 C 
ENDBRANCH  24  25
ENDBRANCH  23  24
ENDBRANCH   6  23
TORSDOF 6
ENDMDL
MODEL 3
REMARK VINA RESULT:      -7.9      2.320      6.332
REMARK  Name = 159603
REMARK  6 active torsions:
REMARK  status: ('A' for Active; 'I' for Inactive)
REMARK    1  A    between atoms: N_1  and  C_17
REMARK    2  A    between atoms: C_6  and  C_23
REMARK    3  A    between atoms: C_17  and  C_18
REMARK    4  A    between atoms: C_18  and  O_21
REMARK    5  A    between atoms: C_23  and  O_24
REMARK    6  A    between atoms: O_24  and  C_25
REMARK                            x       y       z     vdW  Elec       q    Type
REMARK                         _______ _______ _______ _____ _____    ______ ____
ROOT
ATOM      1  N   UNL     1      33.816 -23.642 -15.735  0.00  0.00    -0.259 N 
ATOM      2  N   UNL     1      35.163 -22.679 -17.215  0.00  0.00    -0.383 NA
ATOM      3  N   UNL     1      37.566 -22.745 -14.395  0.00  0.00    -0.385 NA
ATOM      4  N   UNL     1      37.979 -21.880 -16.583  0.00  0.00    -0.331 N 
ATOM      5  C   UNL     1      35.000 -23.438 -15.072  0.00  0.00    +0.090 C 
ATOM      6  C   UNL     1      33.963 -23.174 -17.011  0.00  0.00    +0.194 C 
ATOM      7  C   UNL     1      35.821 -22.835 -16.018  0.00  0.00    +0.189 C 
ATOM      8  C   UNL     1      35.436 -23.711 -13.763  0.00  0.00    +0.046 C 
ATOM      9  C   UNL     1      36.764 -23.330 -13.482  0.00  0.00    +0.134 C 
ATOM     10  C   UNL     1      37.119 -22.492 -15.653  0.00  0.00    +0.208 C 
ATOM     11  C   UNL     1      34.610 -24.321 -12.799  0.00  0.00    +0.004 C 
ATOM     12  C   UNL     1      37.230 -23.584 -12.196  0.00  0.00    +0.032 C 
ATOM     13  C   UNL     1      35.114 -24.558 -11.526  0.00  0.00    +0.000 C 
ATOM     14  C   UNL     1      36.424 -24.190 -11.225  0.00  0.00    +0.003 C 
ATOM     15  H   UNL     1      38.897 -21.638 -16.321  0.00  0.00    +0.145 HD
ATOM     16  H   UNL     1      37.663 -21.692 -17.496  0.00  0.00    +0.145 HD
ENDROOT
BRANCH   1  17
ATOM     17  C   UNL     1      32.600 -24.240 -15.230  0.00  0.00    +0.124 C 
BRANCH  17  18
ATOM     18  C   UNL     1      31.578 -23.244 -14.641  0.00  0.00    +0.107 C 
ATOM     19  C   UNL     1      30.924 -23.861 -13.400  0.00  0.00    +0.031 C 
ATOM     20  C   UNL     1      30.494 -22.838 -15.641  0.00  0.00    +0.031 C 
BRANCH  18  21
ATOM     21  O   UNL     1      32.249 -22.054 -14.225  0.00  0.00    -0.385 OA
ATOM     22  H   UNL     1      32.651 -21.623 -14.996  0.00  0.00    +0.210 HD
ENDBRANCH  18  21
ENDBRANCH  17  18
ENDBRANCH   1  17
BRANCH   6  23
ATOM     23  C   UNL     1      32.874 -23.235 -18.007  0.00  0.00    +0.217 C 
BRANCH  23  24
ATOM     24  O   UNL     1      32.655 -21.912 -18.494  0.00  0.00    -0.345 OA
BRANCH  24  25
ATOM     25  C   UNL     1      33.402 -21.666 -19.675  0.00  0.00    +0.143 C 
ATOM     26  C   UNL     1      33.002 -20.320 -20.241  0.00  0.00    +0.035 C 
ENDBRANCH  24  25
ENDBRANCH  23  24
ENDBRANCH   6  23
TORSDOF 6
ENDMDL
MODEL 4
REMARK VINA RESULT:      -7.8     10.487     13.445
REMARK  Name = 159603
REMARK  6 active torsions:
REMARK  status: ('A' for Active; 'I' for Inactive)
REMARK    1  A    between atoms: N_1  and  C_17
REMARK    2  A    between atoms: C_6  and  C_23
REMARK    3  A    between atoms: C_17  and  C_18
REMARK    4  A    between atoms: C_18  and  O_21
REMARK    5  A    between atoms: C_23  and  O_24
REMARK    6  A    between atoms: O_24  and  C_25
REMARK                            x       y       z     vdW  Elec       q    Type
REMARK                         _______ _______ _______ _____ _____    ______ ____
ROOT
ATOM      1  N   UNL     1      33.016 -14.089 -23.213  0.00  0.00    -0.259 N 
ATOM      2  N   UNL     1      34.216 -13.595 -25.015  0.00  0.00    -0.383 NA
ATOM      3  N   UNL     1      33.509 -10.110 -23.974  0.00  0.00    -0.385 NA
ATOM      4  N   UNL     1      34.780 -10.784 -25.881  0.00  0.00    -0.331 N 
ATOM      5  C   UNL     1      33.047 -12.718 -23.266  0.00  0.00    +0.090 C 
ATOM      6  C   UNL     1      33.728 -14.567 -24.278  0.00  0.00    +0.194 C 
ATOM      7  C   UNL     1      33.800 -12.438 -24.400  0.00  0.00    +0.189 C 
ATOM      8  C   UNL     1      32.503 -11.706 -22.455  0.00  0.00    +0.046 C 
ATOM      9  C   UNL     1      32.779 -10.389 -22.875  0.00  0.00    +0.134 C 
ATOM     10  C   UNL     1      34.023 -11.107 -24.741  0.00  0.00    +0.208 C 
ATOM     11  C   UNL     1      31.738 -11.983 -21.304  0.00  0.00    +0.004 C 
ATOM     12  C   UNL     1      32.257  -9.360 -22.097  0.00  0.00    +0.032 C 
ATOM     13  C   UNL     1      31.235 -10.926 -20.555  0.00  0.00    +0.000 C 
ATOM     14  C   UNL     1      31.495  -9.617 -20.951  0.00  0.00    +0.003 C 
ATOM     15  H   UNL     1      34.935  -9.841 -26.119  0.00  0.00    +0.145 HD
ATOM     16  H   UNL     1      35.155 -11.500 -26.442  0.00  0.00    +0.145 HD
ENDROOT
BRANCH   1  17
ATOM     17  C   UNL     1      32.366 -14.932 -22.234  0.00  0.00    +0.124 C 
BRANCH  17  18
ATOM     18  C   UNL     1      33.254 -15.359 -21.046  0.00  0.00    +0.107 C 
ATOM     19  C   UNL     1      32.467 -15.198 -19.740  0.00  0.00    +0.031 C 
ATOM     20  C   UNL     1      34.559 -14.565 -20.958  0.00  0.00    +0.031 C 
BRANCH  18  21
ATOM     21  O   UNL     1      33.597 -16.740 -21.172  0.00  0.00    -0.385 OA
ATOM     22  H   UNL     1      32.945 -17.185 -21.738  0.00  0.00    +0.210 HD
ENDBRANCH  18  21
ENDBRANCH  17  18
ENDBRANCH   1  17
BRANCH   6  23
ATOM     23  C   UNL     1      33.901 -16.012 -24.531  0.00  0.00    +0.217 C 
BRANCH  23  24
ATOM     24  O   UNL     1      35.100 -16.427 -23.879  0.00  0.00    -0.345 OA
BRANCH  24  25
ATOM     25  C   UNL     1      35.242 -17.838 -23.909  0.00  0.00    +0.143 C 
ATOM     26  C   UNL     1      34.368 -18.399 -25.011  0.00  0.00    +0.035 C 
ENDBRANCH  24  25
ENDBRANCH  23  24
ENDBRANCH   6  23
TORSDOF 6
ENDMDL
MODEL 5
REMARK VINA RESULT:      -7.7     13.784     16.526
REMARK  Name = 159603
REMARK  6 active torsions:
REMARK  status: ('A' for Active; 'I' for Inactive)
REMARK    1  A    between atoms: N_1  and  C_17
REMARK    2  A    between atoms: C_6  and  C_23
REMARK    3  A    between atoms: C_17  and  C_18
REMARK    4  A    between atoms: C_18  and  O_21
REMARK    5  A    between atoms: C_23  and  O_24
REMARK    6  A    between atoms: O_24  and  C_25
REMARK                            x       y       z     vdW  Elec       q    Type
REMARK                         _______ _______ _______ _____ _____    ______ ____
ROOT
ATOM      1  N   UNL     1      32.374  -8.742 -22.345  0.00  0.00    -0.259 N 
ATOM      2  N   UNL     1      31.698  -8.476 -20.246  0.00  0.00    -0.383 NA
ATOM      3  N   UNL     1      31.788 -12.180 -20.224  0.00  0.00    -0.385 NA
ATOM      4  N   UNL     1      31.167 -10.771 -18.398  0.00  0.00    -0.331 N 
ATOM      5  C   UNL     1      32.246 -10.011 -21.839  0.00  0.00    +0.090 C 
ATOM      6  C   UNL     1      32.036  -7.860 -21.357  0.00  0.00    +0.194 C 
ATOM      7  C   UNL     1      31.823  -9.815 -20.530  0.00  0.00    +0.189 C 
ATOM      8  C   UNL     1      32.452 -11.294 -22.379  0.00  0.00    +0.046 C 
ATOM      9  C   UNL     1      32.199 -12.363 -21.496  0.00  0.00    +0.134 C 
ATOM     10  C   UNL     1      31.596 -10.930 -19.728  0.00  0.00    +0.208 C 
ATOM     11  C   UNL     1      32.881 -11.500 -23.705  0.00  0.00    +0.004 C 
ATOM     12  C   UNL     1      32.392 -13.647 -21.995  0.00  0.00    +0.032 C 
ATOM     13  C   UNL     1      33.061 -12.799 -24.164  0.00  0.00    +0.000 C 
ATOM     14  C   UNL     1      32.818 -13.871 -23.310  0.00  0.00    +0.003 C 
ATOM     15  H   UNL     1      31.008 -11.562 -17.834  0.00  0.00    +0.145 HD
ATOM     16  H   UNL     1      31.025  -9.869 -18.031  0.00  0.00    +0.145 HD
ENDROOT
BRANCH   1  17
ATOM     17  C   UNL     1      32.786  -8.346 -23.674  0.00  0.00    +0.124 C 
BRANCH  17  18
ATOM     18  C   UNL     1      34.296  -8.069 -23.834  0.00  0.00    +0.107 C 
ATOM     19  C   UNL     1      34.494  -6.810 -24.686  0.00  0.00    +0.031 C 
ATOM     20  C   UNL     1      35.055  -9.238 -24.465  0.00  0.00    +0.031 C 
BRANCH  18  21
ATOM     21  O   UNL     1      34.879  -7.817 -22.554  0.00  0.00    -0.385 OA
ATOM     22  H   UNL     1      35.836  -7.695 -22.654  0.00  0.00    +0.210 HD
ENDBRANCH  18  21
ENDBRANCH  17  18
ENDBRANCH   1  17
BRANCH   6  23
ATOM     23  C   UNL     1      32.061  -6.397 -21.559  0.00  0.00    +0.217 C 
BRANCH  23  24
ATOM     24  O   UNL     1      30.850  -6.027 -22.215  0.00  0.00    -0.345 OA
BRANCH  24  25
ATOM     25  C   UNL     1      31.014  -4.838 -22.971  0.00  0.00    +0.143 C 
ATOM     26  C   UNL     1      31.014  -5.186 -24.445  0.00  0.00    +0.035 C 
ENDBRANCH  24  25
ENDBRANCH  23  24
ENDBRANCH   6  23
TORSDOF 6
ENDMDL
MODEL 6
REMARK VINA RESULT:      -7.7      3.207      5.961
REMARK  Name = 159603
REMARK  6 active torsions:
REMARK  status: ('A' for Active; 'I' for Inactive)
REMARK    1  A    between atoms: N_1  and  C_17
REMARK    2  A    between atoms: C_6  and  C_23
REMARK    3  A    between atoms: C_17  and  C_18
REMARK    4  A    between atoms: C_18  and  O_21
REMARK    5  A    between atoms: C_23  and  O_24
REMARK    6  A    between atoms: O_24  and  C_25
REMARK                            x       y       z     vdW  Elec       q    Type
REMARK                         _______ _______ _______ _____ _____    ______ ____
ROOT
ATOM      1  N   UNL     1      31.511 -22.999 -15.381  0.00  0.00    -0.259 N 
ATOM      2  N   UNL     1      31.160 -22.616 -17.540  0.00  0.00    -0.383 NA
ATOM      3  N   UNL     1      34.856 -22.820 -17.713  0.00  0.00    -0.385 NA
ATOM      4  N   UNL     1      33.376 -22.418 -19.545  0.00  0.00    -0.331 N 
ATOM      5  C   UNL     1      32.757 -22.982 -15.956  0.00  0.00    +0.090 C 
ATOM      6  C   UNL     1      30.591 -22.776 -16.367  0.00  0.00    +0.194 C 
ATOM      7  C   UNL     1      32.508 -22.740 -17.301  0.00  0.00    +0.189 C 
ATOM      8  C   UNL     1      34.059 -23.149 -15.449  0.00  0.00    +0.046 C 
ATOM      9  C   UNL     1      35.090 -23.055 -16.406  0.00  0.00    +0.134 C 
ATOM     10  C   UNL     1      33.588 -22.662 -18.176  0.00  0.00    +0.208 C 
ATOM     11  C   UNL     1      34.318 -23.394 -14.086  0.00  0.00    +0.004 C 
ATOM     12  C   UNL     1      36.392 -23.215 -15.941  0.00  0.00    +0.032 C 
ATOM     13  C   UNL     1      35.633 -23.548 -13.664  0.00  0.00    +0.000 C 
ATOM     14  C   UNL     1      36.669 -23.459 -14.591  0.00  0.00    +0.003 C 
ATOM     15  H   UNL     1      34.143 -22.364 -20.160  0.00  0.00    +0.145 HD
ATOM     16  H   UNL     1      32.461 -22.302 -19.888  0.00  0.00    +0.145 HD
ENDROOT
BRANCH   1  17
ATOM     17  C   UNL     1      31.170 -23.209 -13.991  0.00  0.00    +0.124 C 
BRANCH  17  18
ATOM     18  C   UNL     1      30.888 -24.675 -13.602  0.00  0.00    +0.107 C 
ATOM     19  C   UNL     1      32.217 -25.415 -13.409  0.00  0.00    +0.031 C 
ATOM     20  C   UNL     1      30.036 -25.416 -14.634  0.00  0.00    +0.031 C 
BRANCH  18  21
ATOM     21  O   UNL     1      30.190 -24.718 -12.356  0.00  0.00    -0.385 OA
ATOM     22  H   UNL     1      30.622 -25.355 -11.764  0.00  0.00    +0.210 HD
ENDBRANCH  18  21
ENDBRANCH  17  18
ENDBRANCH   1  17
BRANCH   6  23
ATOM     23  C   UNL     1      29.139 -22.728 -16.099  0.00  0.00    +0.217 C 
BRANCH  23  24
ATOM     24  O   UNL     1      28.523 -22.008 -17.165  0.00  0.00    -0.345 OA
BRANCH  24  25
ATOM     25  C   UNL     1      27.109 -22.112 -17.110  0.00  0.00    +0.143 C 
ATOM     26  C   UNL     1      26.669 -22.092 -15.661  0.00  0.00    +0.035 C 
ENDBRANCH  24  25
ENDBRANCH  23  24
ENDBRANCH   6  23
TORSDOF 6
ENDMDL
MODEL 7
REMARK VINA RESULT:      -7.6     10.716     13.608
REMARK  Name = 159603
REMARK  6 active torsions:
REMARK  status: ('A' for Active; 'I' for Inactive)
REMARK    1  A    between atoms: N_1  and  C_17
REMARK    2  A    between atoms: C_6  and  C_23
REMARK    3  A    between atoms: C_17  and  C_18
REMARK    4  A    between atoms: C_18  and  O_21
REMARK    5  A    between atoms: C_23  and  O_24
REMARK    6  A    between atoms: O_24  and  C_25
REMARK                            x       y       z     vdW  Elec       q    Type
REMARK                         _______ _______ _______ _____ _____    ______ ____
ROOT
ATOM      1  N   UNL     1      33.707 -13.309 -23.135  0.00  0.00    -0.259 N 
ATOM      2  N   UNL     1      33.266 -12.314 -25.071  0.00  0.00    -0.383 NA
ATOM      3  N   UNL     1      33.858 -15.708 -26.434  0.00  0.00    -0.385 NA
ATOM      4  N   UNL     1      33.287 -13.760 -27.693  0.00  0.00    -0.331 N 
ATOM      5  C   UNL     1      33.815 -14.294 -24.085  0.00  0.00    +0.090 C 
ATOM      6  C   UNL     1      33.377 -12.146 -23.773  0.00  0.00    +0.194 C 
ATOM      7  C   UNL     1      33.536 -13.645 -25.282  0.00  0.00    +0.189 C 
ATOM      8  C   UNL     1      34.124 -15.665 -24.027  0.00  0.00    +0.046 C 
ATOM      9  C   UNL     1      34.128 -16.332 -25.269  0.00  0.00    +0.134 C 
ATOM     10  C   UNL     1      33.563 -14.382 -26.462  0.00  0.00    +0.208 C 
ATOM     11  C   UNL     1      34.408 -16.329 -22.817  0.00  0.00    +0.004 C 
ATOM     12  C   UNL     1      34.430 -17.690 -25.250  0.00  0.00    +0.032 C 
ATOM     13  C   UNL     1      34.704 -17.686 -22.843  0.00  0.00    +0.000 C 
ATOM     14  C   UNL     1      34.714 -18.366 -24.058  0.00  0.00    +0.003 C 
ATOM     15  H   UNL     1      33.308 -14.285 -28.526  0.00  0.00    +0.145 HD
ATOM     16  H   UNL     1      33.073 -12.800 -27.723  0.00  0.00    +0.145 HD
ENDROOT
BRANCH   1  17
ATOM     17  C   UNL     1      33.895 -13.421 -21.706  0.00  0.00    +0.124 C 
BRANCH  17  18
ATOM     18  C   UNL     1      32.635 -13.819 -20.909  0.00  0.00    +0.107 C 
ATOM     19  C   UNL     1      32.163 -12.624 -20.073  0.00  0.00    +0.031 C 
ATOM     20  C   UNL     1      32.861 -15.025 -19.996  0.00  0.00    +0.031 C 
BRANCH  18  21
ATOM     21  O   UNL     1      31.579 -14.153 -21.812  0.00  0.00    -0.385 OA
ATOM     22  H   UNL     1      31.659 -13.615 -22.616  0.00  0.00    +0.210 HD
ENDBRANCH  18  21
ENDBRANCH  17  18
ENDBRANCH   1  17
BRANCH   6  23
ATOM     23  C   UNL     1      33.180 -10.874 -23.047  0.00  0.00    +0.217 C 
BRANCH  23  24
ATOM     24  O   UNL     1      33.837  -9.845 -23.786  0.00  0.00    -0.345 OA
BRANCH  24  25
ATOM     25  C   UNL     1      33.579  -8.565 -23.232  0.00  0.00    +0.143 C 
ATOM     26  C   UNL     1      34.761  -7.661 -23.507  0.00  0.00    +0.035 C 
ENDBRANCH  24  25
ENDBRANCH  23  24
ENDBRANCH   6  23
TORSDOF 6
ENDMDL
MODEL 8
REMARK VINA RESULT:      -7.5     12.548     15.182
REMARK  Name = 159603
REMARK  6 active torsions:
REMARK  status: ('A' for Active; 'I' for Inactive)
REMARK    1  A    between atoms: N_1  and  C_17
REMARK    2  A    between atoms: C_6  and  C_23
REMARK    3  A    between atoms: C_17  and  C_18
REMARK    4  A    between atoms: C_18  and  O_21
REMARK    5  A    between atoms: C_23  and  O_24
REMARK    6  A    between atoms: O_24  and  C_25
REMARK                            x       y       z     vdW  Elec       q    Type
REMARK                         _______ _______ _______ _____ _____    ______ ____
ROOT
ATOM      1  N   UNL     1      32.230 -11.051 -22.754  0.00  0.00    -0.259 N 
ATOM      2  N   UNL     1      31.824 -12.150 -20.867  0.00  0.00    -0.383 NA
ATOM      3  N   UNL     1      31.736  -8.736 -19.429  0.00  0.00    -0.385 NA
ATOM      4  N   UNL     1      31.411 -10.780 -18.236  0.00  0.00    -0.331 N 
ATOM      5  C   UNL     1      32.101 -10.084 -21.788  0.00  0.00    +0.090 C 
ATOM      6  C   UNL     1      32.055 -12.267 -22.155  0.00  0.00    +0.194 C 
ATOM      7  C   UNL     1      31.850 -10.797 -20.623  0.00  0.00    +0.189 C 
ATOM      8  C   UNL     1      32.178  -8.680 -21.809  0.00  0.00    +0.046 C 
ATOM      9  C   UNL     1      31.981  -8.050 -20.564  0.00  0.00    +0.134 C 
ATOM     10  C   UNL     1      31.667 -10.093 -19.436  0.00  0.00    +0.208 C 
ATOM     11  C   UNL     1      32.433  -7.950 -22.988  0.00  0.00    +0.004 C 
ATOM     12  C   UNL     1      32.050  -6.660 -20.546  0.00  0.00    +0.032 C 
ATOM     13  C   UNL     1      32.494  -6.563 -22.926  0.00  0.00    +0.000 C 
ATOM     14  C   UNL     1      32.302  -5.919 -21.706  0.00  0.00    +0.003 C 
ATOM     15  H   UNL     1      31.283 -10.278 -17.398  0.00  0.00    +0.145 HD
ATOM     16  H   UNL     1      31.361 -11.763 -18.232  0.00  0.00    +0.145 HD
ENDROOT
BRANCH   1  17
ATOM     17  C   UNL     1      32.500 -10.877 -24.164  0.00  0.00    +0.124 C 
BRANCH  17  18
ATOM     18  C   UNL     1      33.952 -11.177 -24.593  0.00  0.00    +0.107 C 
ATOM     19  C   UNL     1      34.797  -9.906 -24.447  0.00  0.00    +0.031 C 
ATOM     20  C   UNL     1      34.057 -11.699 -26.026  0.00  0.00    +0.031 C 
BRANCH  18  21
ATOM     21  O   UNL     1      34.516 -12.167 -23.730  0.00  0.00    -0.385 OA
ATOM     22  H   UNL     1      33.807 -12.728 -23.376  0.00  0.00    +0.210 HD
ENDBRANCH  18  21
ENDBRANCH  17  18
ENDBRANCH   1  17
BRANCH   6  23
ATOM     23  C   UNL     1      32.128 -13.538 -22.906  0.00  0.00    +0.217 C 
BRANCH  23  24
ATOM     24  O   UNL     1      32.230 -14.599 -21.957  0.00  0.00    -0.345 OA
BRANCH  24  25
ATOM     25  C   UNL     1      33.480 -15.262 -22.057  0.00  0.00    +0.143 C 
ATOM     26  C   UNL     1      34.205 -15.151 -20.732  0.00  0.00    +0.035 C 
ENDBRANCH  24  25
ENDBRANCH  23  24
ENDBRANCH   6  23
TORSDOF 6
ENDMDL
MODEL 9
REMARK VINA RESULT:      -7.4     12.073     15.141
REMARK  Name = 159603
REMARK  6 active torsions:
REMARK  status: ('A' for Active; 'I' for Inactive)
REMARK    1  A    between atoms: N_1  and  C_17
REMARK    2  A    between atoms: C_6  and  C_23
REMARK    3  A    between atoms: C_17  and  C_18
REMARK    4  A    between atoms: C_18  and  O_21
REMARK    5  A    between atoms: C_23  and  O_24
REMARK    6  A    between atoms: O_24  and  C_25
REMARK                            x       y       z     vdW  Elec       q    Type
REMARK                         _______ _______ _______ _____ _____    ______ ____
ROOT
ATOM      1  N   UNL     1      32.891 -12.140 -23.298  0.00  0.00    -0.259 N 
ATOM      2  N   UNL     1      33.898 -10.688 -24.643  0.00  0.00    -0.383 NA
ATOM      3  N   UNL     1      32.958  -8.273 -21.996  0.00  0.00    -0.385 NA
ATOM      4  N   UNL     1      34.134  -7.770 -24.013  0.00  0.00    -0.331 N 
ATOM      5  C   UNL     1      32.792 -10.927 -22.665  0.00  0.00    +0.090 C 
ATOM      6  C   UNL     1      33.560 -11.947 -24.475  0.00  0.00    +0.194 C 
ATOM      7  C   UNL     1      33.427 -10.040 -23.526  0.00  0.00    +0.189 C 
ATOM      8  C   UNL     1      32.222 -10.514 -21.447  0.00  0.00    +0.046 C 
ATOM      9  C   UNL     1      32.342  -9.138 -21.164  0.00  0.00    +0.134 C 
ATOM     10  C   UNL     1      33.500  -8.697 -23.167  0.00  0.00    +0.208 C 
ATOM     11  C   UNL     1      31.576 -11.408 -20.569  0.00  0.00    +0.004 C 
ATOM     12  C   UNL     1      31.790  -8.694 -19.968  0.00  0.00    +0.032 C 
ATOM     13  C   UNL     1      31.037 -10.922 -19.384  0.00  0.00    +0.000 C 
ATOM     14  C   UNL     1      31.145  -9.567 -19.083  0.00  0.00    +0.003 C 
ATOM     15  H   UNL     1      34.184  -6.821 -23.755  0.00  0.00    +0.145 HD
ATOM     16  H   UNL     1      34.529  -8.069 -24.863  0.00  0.00    +0.145 HD
ENDROOT
BRANCH   1  17
ATOM     17  C   UNL     1      32.398 -13.425 -22.852  0.00  0.00    +0.124 C 
BRANCH  17  18
ATOM     18  C   UNL     1      33.431 -14.300 -22.112  0.00  0.00    +0.107 C 
ATOM     19  C   UNL     1      33.638 -15.607 -22.886  0.00  0.00    +0.031 C 
ATOM     20  C   UNL     1      33.024 -14.618 -20.672  0.00  0.00    +0.031 C 
BRANCH  18  21
ATOM     21  O   UNL     1      34.690 -13.626 -22.065  0.00  0.00    -0.385 OA
ATOM     22  H   UNL     1      34.931 -13.330 -22.958  0.00  0.00    +0.210 HD
ENDBRANCH  18  21
ENDBRANCH  17  18
ENDBRANCH   1  17
BRANCH   6  23
ATOM     23  C   UNL     1      33.844 -13.050 -25.415  0.00  0.00    +0.217 C 
BRANCH  23  24
ATOM     24  O   UNL     1      33.423 -12.635 -26.713  0.00  0.00    -0.345 OA
BRANCH  24  25
ATOM     25  C   UNL     1      32.711 -13.665 -27.379  0.00  0.00    +0.143 C 
ATOM     26  C   UNL     1      32.804 -14.937 -26.562  0.00  0.00    +0.035 C 
ENDBRANCH  24  25
ENDBRANCH  23  24
ENDBRANCH   6  23
TORSDOF 6
ENDMDL
