MODEL 1
REMARK VINA RESULT:      -8.6      0.000      0.000
REMARK  Name = 6131
REMARK  8 active torsions:
REMARK  status: ('A' for Active; 'I' for Inactive)
REMARK    1  A    between atoms: C_2  and  O_16
REMARK    2  A    between atoms: C_3  and  O_18
REMARK    3  A    between atoms: C_4  and  C_20
REMARK    4  A    between atoms: C_5  and  N_7
REMARK    5  A    between atoms: C_20  and  O_21
REMARK    6  A    between atoms: O_21  and  P_22
REMARK    7  A    between atoms: P_22  and  O_24
REMARK    8  A    between atoms: P_22  and  O_26
REMARK                            x       y       z     vdW  Elec       q    Type
REMARK                         _______ _______ _______ _____ _____    ______ ____
ROOT
ATOM      1  O   UNL     1      35.909 -24.974 -15.784  0.00  0.00    -0.332 OA
ATOM      2  C   UNL     1      37.525 -23.550 -14.796  0.00  0.00    +0.171 C 
ATOM      3  C   UNL     1      36.390 -22.698 -15.326  0.00  0.00    +0.188 C 
ATOM      4  C   UNL     1      36.879 -24.927 -14.715  0.00  0.00    +0.176 C 
ATOM      5  C   UNL     1      35.713 -23.647 -16.301  0.00  0.00    +0.236 C 
ENDROOT
BRANCH   5   7
ATOM      6  O   UNL     1      34.375 -22.996 -18.693  0.00  0.00    -0.193 OA
ATOM      7  N   UNL     1      34.305 -23.397 -16.421  0.00  0.00    -0.178 N 
ATOM      8  N   UNL     1      32.337 -22.846 -17.705  0.00  0.00    -0.306 NA
ATOM      9  N   UNL     1      30.253 -22.691 -16.685  0.00  0.00    -0.332 N 
ATOM     10  C   UNL     1      33.516 -23.474 -15.284  0.00  0.00    +0.083 C 
ATOM     11  C   UNL     1      33.702 -23.074 -17.663  0.00  0.00    +0.276 C 
ATOM     12  C   UNL     1      32.202 -23.256 -15.302  0.00  0.00    +0.065 C 
ATOM     13  C   UNL     1      31.607 -22.922 -16.623  0.00  0.00    +0.193 C 
ATOM     14  H   UNL     1      29.830 -22.468 -17.546  0.00  0.00    +0.145 HD
ATOM     15  H   UNL     1      29.705 -22.749 -15.870  0.00  0.00    +0.145 HD
ENDBRANCH   5   7
BRANCH   2  16
ATOM     16  O   UNL     1      38.582 -23.615 -15.752  0.00  0.00    -0.379 OA
ATOM     17  H   UNL     1      38.209 -23.655 -16.647  0.00  0.00    +0.211 HD
ENDBRANCH   2  16
BRANCH   3  18
ATOM     18  O   UNL     1      36.851 -21.517 -15.949  0.00  0.00    -0.378 OA
ATOM     19  H   UNL     1      37.730 -21.674 -16.328  0.00  0.00    +0.211 HD
ENDBRANCH   3  18
BRANCH   4  20
ATOM     20  C   UNL     1      36.149 -25.173 -13.402  0.00  0.00    +0.186 C 
BRANCH  20  21
ATOM     21  O   UNL     1      36.950 -24.687 -12.339  0.00  0.00    -0.271 OA
BRANCH  21  22
ATOM     22  P   UNL     1      36.273 -23.698 -11.250  0.00  0.00    +0.473 P 
ATOM     23  O   UNL     1      36.182 -24.254  -9.859  0.00  0.00    -0.227 OA
BRANCH  22  24
ATOM     24  O   UNL     1      34.860 -23.292 -11.926  0.00  0.00    -0.303 OA
ATOM     25  H   UNL     1      34.361 -24.097 -12.140  0.00  0.00    +0.222 HD
ENDBRANCH  22  24
BRANCH  22  26
ATOM     26  O   UNL     1      37.153 -22.348 -11.392  0.00  0.00    -0.303 OA
ATOM     27  H   UNL     1      36.562 -21.581 -11.451  0.00  0.00    +0.222 HD
ENDBRANCH  22  26
ENDBRANCH  21  22
ENDBRANCH  20  21
ENDBRANCH   4  20
TORSDOF 8
ENDMDL
MODEL 2
REMARK VINA RESULT:      -8.5      2.456      4.165
REMARK  Name = 6131
REMARK  8 active torsions:
REMARK  status: ('A' for Active; 'I' for Inactive)
REMARK    1  A    between atoms: C_2  and  O_16
REMARK    2  A    between atoms: C_3  and  O_18
REMARK    3  A    between atoms: C_4  and  C_20
REMARK    4  A    between atoms: C_5  and  N_7
REMARK    5  A    between atoms: C_20  and  O_21
REMARK    6  A    between atoms: O_21  and  P_22
REMARK    7  A    between atoms: P_22  and  O_24
REMARK    8  A    between atoms: P_22  and  O_26
REMARK                            x       y       z     vdW  Elec       q    Type
REMARK                         _______ _______ _______ _____ _____    ______ ____
ROOT
ATOM      1  O   UNL     1      36.870 -23.274 -13.905  0.00  0.00    -0.332 OA
ATOM      2  C   UNL     1      37.026 -25.029 -12.321  0.00  0.00    +0.171 C 
ATOM      3  C   UNL     1      35.585 -24.912 -12.772  0.00  0.00    +0.188 C 
ATOM      4  C   UNL     1      37.768 -24.303 -13.435  0.00  0.00    +0.176 C 
ATOM      5  C   UNL     1      35.556 -23.518 -13.375  0.00  0.00    +0.236 C 
ENDROOT
BRANCH   5   7
ATOM      6  O   UNL     1      32.759 -23.587 -13.052  0.00  0.00    -0.193 OA
ATOM      7  N   UNL     1      34.596 -23.399 -14.435  0.00  0.00    -0.178 N 
ATOM      8  N   UNL     1      32.332 -23.321 -15.266  0.00  0.00    -0.306 NA
ATOM      9  N   UNL     1      31.902 -23.050 -17.535  0.00  0.00    -0.332 N 
ATOM     10  C   UNL     1      35.055 -23.237 -15.733  0.00  0.00    +0.083 C 
ATOM     11  C   UNL     1      33.200 -23.443 -14.193  0.00  0.00    +0.276 C 
ATOM     12  C   UNL     1      34.237 -23.120 -16.777  0.00  0.00    +0.065 C 
ATOM     13  C   UNL     1      32.781 -23.170 -16.483  0.00  0.00    +0.193 C 
ATOM     14  H   UNL     1      30.931 -23.079 -17.370  0.00  0.00    +0.145 HD
ATOM     15  H   UNL     1      32.242 -22.936 -18.450  0.00  0.00    +0.145 HD
ENDBRANCH   5   7
BRANCH   2  16
ATOM     16  O   UNL     1      37.227 -24.302 -11.111  0.00  0.00    -0.379 OA
ATOM     17  H   UNL     1      36.991 -23.371 -11.249  0.00  0.00    +0.211 HD
ENDBRANCH   2  16
BRANCH   3  18
ATOM     18  O   UNL     1      34.675 -25.060 -11.701  0.00  0.00    -0.378 OA
ATOM     19  H   UNL     1      33.983 -25.692 -11.949  0.00  0.00    +0.211 HD
ENDBRANCH   3  18
BRANCH   4  20
ATOM     20  C   UNL     1      38.117 -25.202 -14.613  0.00  0.00    +0.186 C 
BRANCH  20  21
ATOM     21  O   UNL     1      39.008 -26.209 -14.168  0.00  0.00    -0.271 OA
BRANCH  21  22
ATOM     22  P   UNL     1      40.577 -26.074 -14.542  0.00  0.00    +0.473 P 
ATOM     23  O   UNL     1      41.463 -27.133 -13.953  0.00  0.00    -0.227 OA
BRANCH  22  24
ATOM     24  O   UNL     1      40.942 -24.555 -14.120  0.00  0.00    -0.303 OA
ATOM     25  H   UNL     1      40.487 -23.936 -14.714  0.00  0.00    +0.222 HD
ENDBRANCH  22  24
BRANCH  22  26
ATOM     26  O   UNL     1      40.560 -26.017 -16.158  0.00  0.00    -0.303 OA
ATOM     27  H   UNL     1      40.077 -26.783 -16.504  0.00  0.00    +0.222 HD
ENDBRANCH  22  26
ENDBRANCH  21  22
ENDBRANCH  20  21
ENDBRANCH   4  20
TORSDOF 8
ENDMDL
MODEL 3
REMARK VINA RESULT:      -8.5      0.970      1.388
REMARK  Name = 6131
REMARK  8 active torsions:
REMARK  status: ('A' for Active; 'I' for Inactive)
REMARK    1  A    between atoms: C_2  and  O_16
REMARK    2  A    between atoms: C_3  and  O_18
REMARK    3  A    between atoms: C_4  and  C_20
REMARK    4  A    between atoms: C_5  and  N_7
REMARK    5  A    between atoms: C_20  and  O_21
REMARK    6  A    between atoms: O_21  and  P_22
REMARK    7  A    between atoms: P_22  and  O_24
REMARK    8  A    between atoms: P_22  and  O_26
REMARK                            x       y       z     vdW  Elec       q    Type
REMARK                         _______ _______ _______ _____ _____    ______ ____
ROOT
ATOM      1  O   UNL     1      35.774 -24.314 -14.974  0.00  0.00    -0.332 OA
ATOM      2  C   UNL     1      37.529 -22.743 -15.237  0.00  0.00    +0.171 C 
ATOM      3  C   UNL     1      36.372 -22.328 -16.122  0.00  0.00    +0.188 C 
ATOM      4  C   UNL     1      36.852 -23.682 -14.248  0.00  0.00    +0.176 C 
ATOM      5  C   UNL     1      35.567 -23.614 -16.212  0.00  0.00    +0.236 C 
ENDROOT
BRANCH   5   7
ATOM      6  O   UNL     1      34.302 -23.023 -18.658  0.00  0.00    -0.193 OA
ATOM      7  N   UNL     1      34.163 -23.371 -16.381  0.00  0.00    -0.178 N 
ATOM      8  N   UNL     1      32.233 -22.856 -17.737  0.00  0.00    -0.306 NA
ATOM      9  N   UNL     1      30.119 -22.683 -16.785  0.00  0.00    -0.332 N 
ATOM     10  C   UNL     1      33.339 -23.423 -15.267  0.00  0.00    +0.083 C 
ATOM     11  C   UNL     1      33.598 -23.079 -17.648  0.00  0.00    +0.276 C 
ATOM     12  C   UNL     1      32.027 -23.210 -15.331  0.00  0.00    +0.065 C 
ATOM     13  C   UNL     1      31.472 -22.908 -16.677  0.00  0.00    +0.193 C 
ATOM     14  H   UNL     1      29.723 -22.482 -17.664  0.00  0.00    +0.145 HD
ATOM     15  H   UNL     1      29.547 -22.724 -15.986  0.00  0.00    +0.145 HD
ENDBRANCH   5   7
BRANCH   2  16
ATOM     16  O   UNL     1      38.477 -23.501 -15.985  0.00  0.00    -0.379 OA
ATOM     17  H   UNL     1      38.881 -24.173 -15.413  0.00  0.00    +0.211 HD
ENDBRANCH   2  16
BRANCH   3  18
ATOM     18  O   UNL     1      36.803 -21.867 -17.387  0.00  0.00    -0.378 OA
ATOM     19  H   UNL     1      37.682 -22.227 -17.579  0.00  0.00    +0.211 HD
ENDBRANCH   3  18
BRANCH   4  20
ATOM     20  C   UNL     1      36.256 -22.963 -13.045  0.00  0.00    +0.186 C 
BRANCH  20  21
ATOM     21  O   UNL     1      36.706 -23.604 -11.864  0.00  0.00    -0.271 OA
BRANCH  21  22
ATOM     22  P   UNL     1      35.802 -24.791 -11.236  0.00  0.00    +0.473 P 
ATOM     23  O   UNL     1      35.485 -24.641  -9.776  0.00  0.00    -0.227 OA
BRANCH  22  24
ATOM     24  O   UNL     1      36.605 -26.137 -11.634  0.00  0.00    -0.303 OA
ATOM     25  H   UNL     1      37.200 -26.386 -10.908  0.00  0.00    +0.222 HD
ENDBRANCH  22  24
BRANCH  22  26
ATOM     26  O   UNL     1      34.515 -24.822 -12.215  0.00  0.00    -0.303 OA
ATOM     27  H   UNL     1      34.620 -25.535 -12.865  0.00  0.00    +0.222 HD
ENDBRANCH  22  26
ENDBRANCH  21  22
ENDBRANCH  20  21
ENDBRANCH   4  20
TORSDOF 8
ENDMDL
MODEL 4
REMARK VINA RESULT:      -8.5      4.335      6.778
REMARK  Name = 6131
REMARK  8 active torsions:
REMARK  status: ('A' for Active; 'I' for Inactive)
REMARK    1  A    between atoms: C_2  and  O_16
REMARK    2  A    between atoms: C_3  and  O_18
REMARK    3  A    between atoms: C_4  and  C_20
REMARK    4  A    between atoms: C_5  and  N_7
REMARK    5  A    between atoms: C_20  and  O_21
REMARK    6  A    between atoms: O_21  and  P_22
REMARK    7  A    between atoms: P_22  and  O_24
REMARK    8  A    between atoms: P_22  and  O_26
REMARK                            x       y       z     vdW  Elec       q    Type
REMARK                         _______ _______ _______ _____ _____    ______ ____
ROOT
ATOM      1  O   UNL     1      31.005 -24.153 -15.858  0.00  0.00    -0.332 OA
ATOM      2  C   UNL     1      30.780 -23.494 -13.594  0.00  0.00    +0.171 C 
ATOM      3  C   UNL     1      32.184 -23.161 -14.056  0.00  0.00    +0.188 C 
ATOM      4  C   UNL     1      30.037 -23.646 -14.914  0.00  0.00    +0.176 C 
ATOM      5  C   UNL     1      32.321 -24.033 -15.294  0.00  0.00    +0.236 C 
ENDROOT
BRANCH   5   7
ATOM      6  O   UNL     1      35.122 -23.848 -15.063  0.00  0.00    -0.193 OA
ATOM      7  N   UNL     1      33.198 -23.457 -16.274  0.00  0.00    -0.178 N 
ATOM      8  N   UNL     1      35.387 -22.831 -17.075  0.00  0.00    -0.306 NA
ATOM      9  N   UNL     1      35.649 -21.787 -19.136  0.00  0.00    -0.332 N 
ATOM     10  C   UNL     1      32.648 -22.941 -17.437  0.00  0.00    +0.083 C 
ATOM     11  C   UNL     1      34.602 -23.401 -16.086  0.00  0.00    +0.276 C 
ATOM     12  C   UNL     1      33.385 -22.389 -18.399  0.00  0.00    +0.065 C 
ATOM     13  C   UNL     1      34.853 -22.349 -18.166  0.00  0.00    +0.193 C 
ATOM     14  H   UNL     1      36.625 -21.748 -19.010  0.00  0.00    +0.145 HD
ATOM     15  H   UNL     1      35.245 -21.426 -19.957  0.00  0.00    +0.145 HD
ENDBRANCH   5   7
BRANCH   2  16
ATOM     16  O   UNL     1      30.764 -24.758 -12.931  0.00  0.00    -0.379 OA
ATOM     17  H   UNL     1      30.664 -24.622 -11.976  0.00  0.00    +0.211 HD
ENDBRANCH   2  16
BRANCH   3  18
ATOM     18  O   UNL     1      33.156 -23.455 -13.074  0.00  0.00    -0.378 OA
ATOM     19  H   UNL     1      33.866 -23.983 -13.470  0.00  0.00    +0.211 HD
ENDBRANCH   3  18
BRANCH   4  20
ATOM     20  C   UNL     1      29.492 -22.331 -15.453  0.00  0.00    +0.186 C 
BRANCH  20  21
ATOM     21  O   UNL     1      29.167 -22.502 -16.822  0.00  0.00    -0.271 OA
BRANCH  21  22
ATOM     22  P   UNL     1      27.655 -22.932 -17.210  0.00  0.00    +0.473 P 
ATOM     23  O   UNL     1      27.089 -22.241 -18.416  0.00  0.00    -0.227 OA
BRANCH  22  24
ATOM     24  O   UNL     1      26.829 -22.713 -15.837  0.00  0.00    -0.303 OA
ATOM     25  H   UNL     1      27.208 -21.965 -15.347  0.00  0.00    +0.222 HD
ENDBRANCH  22  24
BRANCH  22  26
ATOM     26  O   UNL     1      27.757 -24.542 -17.329  0.00  0.00    -0.303 OA
ATOM     27  H   UNL     1      28.057 -24.911 -16.483  0.00  0.00    +0.222 HD
ENDBRANCH  22  26
ENDBRANCH  21  22
ENDBRANCH  20  21
ENDBRANCH   4  20
TORSDOF 8
ENDMDL
MODEL 5
REMARK VINA RESULT:      -8.2      2.281      3.839
REMARK  Name = 6131
REMARK  8 active torsions:
REMARK  status: ('A' for Active; 'I' for Inactive)
REMARK    1  A    between atoms: C_2  and  O_16
REMARK    2  A    between atoms: C_3  and  O_18
REMARK    3  A    between atoms: C_4  and  C_20
REMARK    4  A    between atoms: C_5  and  N_7
REMARK    5  A    between atoms: C_20  and  O_21
REMARK    6  A    between atoms: O_21  and  P_22
REMARK    7  A    between atoms: P_22  and  O_24
REMARK    8  A    between atoms: P_22  and  O_26
REMARK                            x       y       z     vdW  Elec       q    Type
REMARK                         _______ _______ _______ _____ _____    ______ ____
ROOT
ATOM      1  O   UNL     1      37.307 -23.598 -14.641  0.00  0.00    -0.332 OA
ATOM      2  C   UNL     1      36.477 -24.740 -12.739  0.00  0.00    +0.171 C 
ATOM      3  C   UNL     1      35.302 -24.231 -13.547  0.00  0.00    +0.188 C 
ATOM      4  C   UNL     1      37.607 -24.702 -13.759  0.00  0.00    +0.176 C 
ATOM      5  C   UNL     1      35.954 -23.169 -14.415  0.00  0.00    +0.236 C 
ENDROOT
BRANCH   5   7
ATOM      6  O   UNL     1      37.093 -21.996 -16.710  0.00  0.00    -0.193 OA
ATOM      7  N   UNL     1      35.296 -23.016 -15.682  0.00  0.00    -0.178 N 
ATOM      8  N   UNL     1      35.240 -22.300 -17.986  0.00  0.00    -0.306 NA
ATOM      9  N   UNL     1      33.338 -22.614 -19.286  0.00  0.00    -0.332 N 
ATOM     10  C   UNL     1      33.994 -23.472 -15.814  0.00  0.00    +0.083 C 
ATOM     11  C   UNL     1      35.936 -22.414 -16.794  0.00  0.00    +0.276 C 
ATOM     12  C   UNL     1      33.307 -23.372 -16.951  0.00  0.00    +0.065 C 
ATOM     13  C   UNL     1      34.013 -22.736 -18.094  0.00  0.00    +0.193 C 
ATOM     14  H   UNL     1      33.780 -22.197 -20.062  0.00  0.00    +0.145 HD
ATOM     15  H   UNL     1      32.414 -22.943 -19.366  0.00  0.00    +0.145 HD
ENDBRANCH   5   7
BRANCH   2  16
ATOM     16  O   UNL     1      36.795 -23.821 -11.695  0.00  0.00    -0.379 OA
ATOM     17  H   UNL     1      36.047 -23.755 -11.081  0.00  0.00    +0.211 HD
ENDBRANCH   2  16
BRANCH   3  18
ATOM     18  O   UNL     1      34.274 -23.710 -12.730  0.00  0.00    -0.378 OA
ATOM     19  H   UNL     1      34.385 -22.750 -12.644  0.00  0.00    +0.211 HD
ENDBRANCH   3  18
BRANCH   4  20
ATOM     20  C   UNL     1      37.703 -25.968 -14.599  0.00  0.00    +0.186 C 
BRANCH  20  21
ATOM     21  O   UNL     1      38.889 -26.657 -14.248  0.00  0.00    -0.271 OA
BRANCH  21  22
ATOM     22  P   UNL     1      40.313 -25.946 -14.546  0.00  0.00    +0.473 P 
ATOM     23  O   UNL     1      40.516 -24.623 -13.867  0.00  0.00    -0.227 OA
BRANCH  22  24
ATOM     24  O   UNL     1      40.396 -25.914 -16.161  0.00  0.00    -0.303 OA
ATOM     25  H   UNL     1      41.258 -26.255 -16.448  0.00  0.00    +0.222 HD
ENDBRANCH  22  24
BRANCH  22  26
ATOM     26  O   UNL     1      41.381 -27.093 -14.143  0.00  0.00    -0.303 OA
ATOM     27  H   UNL     1      42.281 -26.745 -14.238  0.00  0.00    +0.222 HD
ENDBRANCH  22  26
ENDBRANCH  21  22
ENDBRANCH  20  21
ENDBRANCH   4  20
TORSDOF 8
ENDMDL
MODEL 6
REMARK VINA RESULT:      -8.1      7.407      9.964
REMARK  Name = 6131
REMARK  8 active torsions:
REMARK  status: ('A' for Active; 'I' for Inactive)
REMARK    1  A    between atoms: C_2  and  O_16
REMARK    2  A    between atoms: C_3  and  O_18
REMARK    3  A    between atoms: C_4  and  C_20
REMARK    4  A    between atoms: C_5  and  N_7
REMARK    5  A    between atoms: C_20  and  O_21
REMARK    6  A    between atoms: O_21  and  P_22
REMARK    7  A    between atoms: P_22  and  O_24
REMARK    8  A    between atoms: P_22  and  O_26
REMARK                            x       y       z     vdW  Elec       q    Type
REMARK                         _______ _______ _______ _____ _____    ______ ____
ROOT
ATOM      1  O   UNL     1      35.280 -17.464 -20.713  0.00  0.00    -0.332 OA
ATOM      2  C   UNL     1      34.754 -16.900 -22.953  0.00  0.00    +0.171 C 
ATOM      3  C   UNL     1      34.522 -18.384 -22.761  0.00  0.00    +0.188 C 
ATOM      4  C   UNL     1      34.750 -16.388 -21.519  0.00  0.00    +0.176 C 
ATOM      5  C   UNL     1      35.318 -18.667 -21.499  0.00  0.00    +0.236 C 
ENDROOT
BRANCH   5   7
ATOM      6  O   UNL     1      36.808 -20.625 -20.127  0.00  0.00    -0.193 OA
ATOM      7  N   UNL     1      34.762 -19.744 -20.729  0.00  0.00    -0.178 N 
ATOM      8  N   UNL     1      34.973 -21.706 -19.340  0.00  0.00    -0.306 NA
ATOM      9  N   UNL     1      33.089 -22.808 -18.540  0.00  0.00    -0.332 N 
ATOM     10  C   UNL     1      33.383 -19.854 -20.639  0.00  0.00    +0.083 C 
ATOM     11  C   UNL     1      35.579 -20.692 -20.065  0.00  0.00    +0.276 C 
ATOM     12  C   UNL     1      32.781 -20.820 -19.948  0.00  0.00    +0.065 C 
ATOM     13  C   UNL     1      33.672 -21.795 -19.265  0.00  0.00    +0.193 C 
ATOM     14  H   UNL     1      33.653 -23.469 -18.076  0.00  0.00    +0.145 HD
ATOM     15  H   UNL     1      32.109 -22.874 -18.484  0.00  0.00    +0.145 HD
ENDBRANCH   5   7
BRANCH   2  16
ATOM     16  O   UNL     1      36.052 -16.669 -23.499  0.00  0.00    -0.379 OA
ATOM     17  H   UNL     1      36.726 -16.984 -22.877  0.00  0.00    +0.211 HD
ENDBRANCH   2  16
BRANCH   3  18
ATOM     18  O   UNL     1      34.967 -19.144 -23.866  0.00  0.00    -0.378 OA
ATOM     19  H   UNL     1      34.214 -19.605 -24.267  0.00  0.00    +0.211 HD
ENDBRANCH   3  18
BRANCH   4  20
ATOM     20  C   UNL     1      33.357 -16.052 -21.004  0.00  0.00    +0.186 C 
BRANCH  20  21
ATOM     21  O   UNL     1      32.668 -15.322 -22.003  0.00  0.00    -0.271 OA
BRANCH  21  22
ATOM     22  P   UNL     1      32.740 -13.705 -21.969  0.00  0.00    +0.473 P 
ATOM     23  O   UNL     1      32.477 -13.087 -20.628  0.00  0.00    -0.227 OA
BRANCH  22  24
ATOM     24  O   UNL     1      31.732 -13.251 -23.150  0.00  0.00    -0.303 OA
ATOM     25  H   UNL     1      31.996 -13.675 -23.982  0.00  0.00    +0.222 HD
ENDBRANCH  22  24
BRANCH  22  26
ATOM     26  O   UNL     1      34.202 -13.396 -22.590  0.00  0.00    -0.303 OA
ATOM     27  H   UNL     1      34.226 -12.485 -22.922  0.00  0.00    +0.222 HD
ENDBRANCH  22  26
ENDBRANCH  21  22
ENDBRANCH  20  21
ENDBRANCH   4  20
TORSDOF 8
ENDMDL
MODEL 7
REMARK VINA RESULT:      -8.1      2.688      4.573
REMARK  Name = 6131
REMARK  8 active torsions:
REMARK  status: ('A' for Active; 'I' for Inactive)
REMARK    1  A    between atoms: C_2  and  O_16
REMARK    2  A    between atoms: C_3  and  O_18
REMARK    3  A    between atoms: C_4  and  C_20
REMARK    4  A    between atoms: C_5  and  N_7
REMARK    5  A    between atoms: C_20  and  O_21
REMARK    6  A    between atoms: O_21  and  P_22
REMARK    7  A    between atoms: P_22  and  O_24
REMARK    8  A    between atoms: P_22  and  O_26
REMARK                            x       y       z     vdW  Elec       q    Type
REMARK                         _______ _______ _______ _____ _____    ______ ____
ROOT
ATOM      1  O   UNL     1      37.291 -23.443 -12.678  0.00  0.00    -0.332 OA
ATOM      2  C   UNL     1      36.030 -25.219 -11.744  0.00  0.00    +0.171 C 
ATOM      3  C   UNL     1      35.335 -24.742 -13.002  0.00  0.00    +0.188 C 
ATOM      4  C   UNL     1      37.439 -24.671 -11.931  0.00  0.00    +0.176 C 
ATOM      5  C   UNL     1      35.955 -23.370 -13.204  0.00  0.00    +0.236 C 
ENDROOT
BRANCH   5   7
ATOM      6  O   UNL     1      33.734 -23.024 -14.901  0.00  0.00    -0.193 OA
ATOM      7  N   UNL     1      36.020 -22.997 -14.589  0.00  0.00    -0.178 N 
ATOM      8  N   UNL     1      34.993 -22.478 -16.710  0.00  0.00    -0.306 NA
ATOM      9  N   UNL     1      36.289 -21.922 -18.559  0.00  0.00    -0.332 N 
ATOM     10  C   UNL     1      37.263 -22.785 -15.164  0.00  0.00    +0.083 C 
ATOM     11  C   UNL     1      34.855 -22.841 -15.380  0.00  0.00    +0.276 C 
ATOM     12  C   UNL     1      37.418 -22.437 -16.440  0.00  0.00    +0.065 C 
ATOM     13  C   UNL     1      36.172 -22.282 -17.236  0.00  0.00    +0.193 C 
ATOM     14  H   UNL     1      35.481 -21.812 -19.112  0.00  0.00    +0.145 HD
ATOM     15  H   UNL     1      37.178 -21.774 -18.953  0.00  0.00    +0.145 HD
ENDBRANCH   5   7
BRANCH   2  16
ATOM     16  O   UNL     1      35.462 -24.589 -10.597  0.00  0.00    -0.379 OA
ATOM     17  H   UNL     1      34.970 -23.799 -10.870  0.00  0.00    +0.211 HD
ENDBRANCH   2  16
BRANCH   3  18
ATOM     18  O   UNL     1      33.931 -24.687 -12.851  0.00  0.00    -0.378 OA
ATOM     19  H   UNL     1      33.702 -24.800 -11.916  0.00  0.00    +0.211 HD
ENDBRANCH   3  18
BRANCH   4  20
ATOM     20  C   UNL     1      38.346 -25.601 -12.723  0.00  0.00    +0.186 C 
BRANCH  20  21
ATOM     21  O   UNL     1      39.385 -24.834 -13.306  0.00  0.00    -0.271 OA
BRANCH  21  22
ATOM     22  P   UNL     1      40.341 -25.537 -14.407  0.00  0.00    +0.473 P 
ATOM     23  O   UNL     1      41.044 -26.778 -13.937  0.00  0.00    -0.227 OA
BRANCH  22  24
ATOM     24  O   UNL     1      41.310 -24.338 -14.897  0.00  0.00    -0.303 OA
ATOM     25  H   UNL     1      41.266 -23.607 -14.260  0.00  0.00    +0.222 HD
ENDBRANCH  22  24
BRANCH  22  26
ATOM     26  O   UNL     1      39.348 -25.750 -15.666  0.00  0.00    -0.303 OA
ATOM     27  H   UNL     1      38.585 -25.157 -15.579  0.00  0.00    +0.222 HD
ENDBRANCH  22  26
ENDBRANCH  21  22
ENDBRANCH  20  21
ENDBRANCH   4  20
TORSDOF 8
ENDMDL
MODEL 8
REMARK VINA RESULT:      -7.9      2.295      3.892
REMARK  Name = 6131
REMARK  8 active torsions:
REMARK  status: ('A' for Active; 'I' for Inactive)
REMARK    1  A    between atoms: C_2  and  O_16
REMARK    2  A    between atoms: C_3  and  O_18
REMARK    3  A    between atoms: C_4  and  C_20
REMARK    4  A    between atoms: C_5  and  N_7
REMARK    5  A    between atoms: C_20  and  O_21
REMARK    6  A    between atoms: O_21  and  P_22
REMARK    7  A    between atoms: P_22  and  O_24
REMARK    8  A    between atoms: P_22  and  O_26
REMARK                            x       y       z     vdW  Elec       q    Type
REMARK                         _______ _______ _______ _____ _____    ______ ____
ROOT
ATOM      1  O   UNL     1      35.839 -23.003 -14.616  0.00  0.00    -0.332 OA
ATOM      2  C   UNL     1      35.362 -24.981 -13.402  0.00  0.00    +0.171 C 
ATOM      3  C   UNL     1      34.253 -24.752 -14.408  0.00  0.00    +0.188 C 
ATOM      4  C   UNL     1      36.485 -24.119 -13.963  0.00  0.00    +0.176 C 
ATOM      5  C   UNL     1      34.436 -23.283 -14.748  0.00  0.00    +0.236 C 
ENDROOT
BRANCH   5   7
ATOM      6  O   UNL     1      31.769 -23.211 -15.654  0.00  0.00    -0.193 OA
ATOM      7  N   UNL     1      34.023 -22.976 -16.089  0.00  0.00    -0.178 N 
ATOM      8  N   UNL     1      32.334 -22.654 -17.782  0.00  0.00    -0.306 NA
ATOM      9  N   UNL     1      32.920 -22.085 -19.959  0.00  0.00    -0.332 N 
ATOM     10  C   UNL     1      34.995 -22.690 -17.035  0.00  0.00    +0.083 C 
ATOM     11  C   UNL     1      32.658 -22.959 -16.470  0.00  0.00    +0.276 C 
ATOM     12  C   UNL     1      34.705 -22.395 -18.300  0.00  0.00    +0.065 C 
ATOM     13  C   UNL     1      33.263 -22.386 -18.661  0.00  0.00    +0.193 C 
ATOM     14  H   UNL     1      31.972 -22.071 -20.227  0.00  0.00    +0.145 HD
ATOM     15  H   UNL     1      33.621 -21.884 -20.619  0.00  0.00    +0.145 HD
ENDBRANCH   5   7
BRANCH   2  16
ATOM     16  O   UNL     1      34.993 -24.451 -12.130  0.00  0.00    -0.379 OA
ATOM     17  H   UNL     1      35.715 -23.901 -11.786  0.00  0.00    +0.211 HD
ENDBRANCH   2  16
BRANCH   3  18
ATOM     18  O   UNL     1      32.976 -25.031 -13.870  0.00  0.00    -0.378 OA
ATOM     19  H   UNL     1      32.432 -25.471 -14.542  0.00  0.00    +0.211 HD
ENDBRANCH   3  18
BRANCH   4  20
ATOM     20  C   UNL     1      37.340 -24.841 -14.995  0.00  0.00    +0.186 C 
BRANCH  20  21
ATOM     21  O   UNL     1      38.645 -24.291 -14.967  0.00  0.00    -0.271 OA
BRANCH  21  22
ATOM     22  P   UNL     1      39.898 -25.282 -14.702  0.00  0.00    +0.473 P 
ATOM     23  O   UNL     1      41.039 -24.672 -13.942  0.00  0.00    -0.227 OA
BRANCH  22  24
ATOM     24  O   UNL     1      40.267 -25.837 -16.175  0.00  0.00    -0.303 OA
ATOM     25  H   UNL     1      40.540 -26.767 -16.112  0.00  0.00    +0.222 HD
ENDBRANCH  22  24
BRANCH  22  26
ATOM     26  O   UNL     1      39.204 -26.556 -13.987  0.00  0.00    -0.303 OA
ATOM     27  H   UNL     1      38.603 -26.250 -13.290  0.00  0.00    +0.222 HD
ENDBRANCH  22  26
ENDBRANCH  21  22
ENDBRANCH  20  21
ENDBRANCH   4  20
TORSDOF 8
ENDMDL
MODEL 9
REMARK VINA RESULT:      -7.5     10.866     12.829
REMARK  Name = 6131
REMARK  8 active torsions:
REMARK  status: ('A' for Active; 'I' for Inactive)
REMARK    1  A    between atoms: C_2  and  O_16
REMARK    2  A    between atoms: C_3  and  O_18
REMARK    3  A    between atoms: C_4  and  C_20
REMARK    4  A    between atoms: C_5  and  N_7
REMARK    5  A    between atoms: C_20  and  O_21
REMARK    6  A    between atoms: O_21  and  P_22
REMARK    7  A    between atoms: P_22  and  O_24
REMARK    8  A    between atoms: P_22  and  O_26
REMARK                            x       y       z     vdW  Elec       q    Type
REMARK                         _______ _______ _______ _____ _____    ______ ____
ROOT
ATOM      1  O   UNL     1      32.036 -14.300 -22.134  0.00  0.00    -0.332 OA
ATOM      2  C   UNL     1      33.972 -14.702 -23.440  0.00  0.00    +0.171 C 
ATOM      3  C   UNL     1      33.853 -13.212 -23.199  0.00  0.00    +0.188 C 
ATOM      4  C   UNL     1      33.082 -15.274 -22.344  0.00  0.00    +0.176 C 
ATOM      5  C   UNL     1      32.395 -13.074 -22.793  0.00  0.00    +0.236 C 
ENDROOT
BRANCH   5   7
ATOM      6  O   UNL     1      32.476 -10.347 -23.494  0.00  0.00    -0.193 OA
ATOM      7  N   UNL     1      32.179 -11.979 -21.890  0.00  0.00    -0.178 N 
ATOM      8  N   UNL     1      32.016  -9.623 -21.392  0.00  0.00    -0.306 NA
ATOM      9  N   UNL     1      31.548  -8.890 -19.236  0.00  0.00    -0.332 N 
ATOM     10  C   UNL     1      31.909 -12.257 -20.559  0.00  0.00    +0.083 C 
ATOM     11  C   UNL     1      32.236 -10.629 -22.319  0.00  0.00    +0.276 C 
ATOM     12  C   UNL     1      31.696 -11.305 -19.653  0.00  0.00    +0.065 C 
ATOM     13  C   UNL     1      31.763  -9.903 -20.141  0.00  0.00    +0.193 C 
ATOM     14  H   UNL     1      31.585  -7.950 -19.530  0.00  0.00    +0.145 HD
ATOM     15  H   UNL     1      31.356  -9.102 -18.295  0.00  0.00    +0.145 HD
ENDBRANCH   5   7
BRANCH   2  16
ATOM     16  O   UNL     1      33.397 -15.047 -24.699  0.00  0.00    -0.379 OA
ATOM     17  H   UNL     1      33.960 -15.700 -25.145  0.00  0.00    +0.211 HD
ENDBRANCH   2  16
BRANCH   3  18
ATOM     18  O   UNL     1      34.170 -12.456 -24.350  0.00  0.00    -0.378 OA
ATOM     19  H   UNL     1      35.010 -11.992 -24.210  0.00  0.00    +0.211 HD
ENDBRANCH   3  18
BRANCH   4  20
ATOM     20  C   UNL     1      33.810 -15.482 -21.024  0.00  0.00    +0.186 C 
BRANCH  20  21
ATOM     21  O   UNL     1      34.971 -16.258 -21.262  0.00  0.00    -0.271 OA
BRANCH  21  22
ATOM     22  P   UNL     1      34.809 -17.861 -21.426  0.00  0.00    +0.473 P 
ATOM     23  O   UNL     1      33.480 -18.411 -20.998  0.00  0.00    -0.227 OA
BRANCH  22  24
ATOM     24  O   UNL     1      36.089 -18.458 -20.639  0.00  0.00    -0.303 OA
ATOM     25  H   UNL     1      36.739 -18.788 -21.281  0.00  0.00    +0.222 HD
ENDBRANCH  22  24
BRANCH  22  26
ATOM     26  O   UNL     1      35.182 -18.104 -22.981  0.00  0.00    -0.303 OA
ATOM     27  H   UNL     1      35.184 -19.056 -23.168  0.00  0.00    +0.222 HD
ENDBRANCH  22  26
ENDBRANCH  21  22
ENDBRANCH  20  21
ENDBRANCH   4  20
TORSDOF 8
ENDMDL
