MODEL 1
REMARK VINA RESULT:      -9.2      0.000      0.000
REMARK  Name = 23653507
REMARK  15 active torsions:
REMARK  status: ('A' for Active; 'I' for Inactive)
REMARK    1  A    between atoms: P_1  and  O_3
REMARK    2  A    between atoms: P_1  and  C_5
REMARK    3  A    between atoms: P_1  and  C_22
REMARK    4  A    between atoms: C_5  and  C_6
REMARK    5  A    between atoms: C_5  and  N_9
REMARK    6  A    between atoms: N_9  and  S_11
REMARK    7  A    between atoms: S_11  and  C_14
REMARK    8  A    between atoms: C_14  and  C_15
REMARK    9  A    between atoms: C_15  and  C_16
REMARK   10  A    between atoms: C_22  and  C_23
REMARK   11  A    between atoms: C_23  and  C_24
REMARK   12  A    between atoms: C_23  and  C_36
REMARK   13  A    between atoms: C_27  and  C_30
REMARK   14  A    between atoms: C_30  and  N_31
REMARK   15  A    between atoms: C_36  and  O_37
REMARK                            x       y       z     vdW  Elec       q    Type
REMARK                         _______ _______ _______ _____ _____    ______ ____
ROOT
ATOM      1  P   UNL     1      33.168 -14.788 -21.065  0.00  0.00    +0.236 P 
ATOM      2  O   UNL     1      32.365 -14.802 -19.798  0.00  0.00    -0.288 OA
ENDROOT
BRANCH   1   3
ATOM      3  O   UNL     1      34.743 -14.499 -20.840  0.00  0.00    -0.342 OA
ATOM      4  H   UNL     1      35.249 -14.881 -21.574  0.00  0.00    +0.218 HD
ENDBRANCH   1   3
BRANCH   1   5
ATOM      5  C   UNL     1      32.666 -13.568 -22.278  0.00  0.00    +0.152 C 
BRANCH   5   6
ATOM      6  C   UNL     1      33.428 -13.525 -23.620  0.00  0.00    +0.025 C 
ATOM      7  C   UNL     1      32.715 -14.260 -24.756  0.00  0.00    +0.002 C 
ATOM      8  C   UNL     1      33.744 -12.091 -24.049  0.00  0.00    +0.002 C 
ENDBRANCH   5   6
BRANCH   5   9
ATOM      9  N   UNL     1      32.819 -12.254 -21.606  0.00  0.00    -0.175 NA
ATOM     10  H   UNL     1      33.424 -12.411 -20.800  0.00  0.00    +0.149 HD
BRANCH   9  11
ATOM     11  S   UNL     1      31.476 -11.387 -21.036  0.00  0.00    +0.042 S 
ATOM     12  O   UNL     1      31.314 -11.600 -19.611  0.00  0.00    -0.157 OA
ATOM     13  O   UNL     1      30.369 -11.600 -21.949  0.00  0.00    -0.157 OA
BRANCH  11  14
ATOM     14  C   UNL     1      32.032  -9.715 -21.274  0.00  0.00    +0.173 C 
BRANCH  14  15
ATOM     15  C   UNL     1      31.509  -9.100 -22.567  0.00  0.00    +0.053 C 
BRANCH  15  16
ATOM     16  C   UNL     1      32.516  -8.222 -23.267  0.00  0.00    -0.020 C 
ATOM     17  C   UNL     1      32.079  -7.110 -23.969  0.00  0.00    -0.004 C 
ATOM     18  C   UNL     1      33.864  -8.542 -23.194  0.00  0.00    -0.004 C 
ATOM     19  C   UNL     1      33.011  -6.298 -24.616  0.00  0.00    -0.000 C 
ATOM     20  C   UNL     1      34.796  -7.730 -23.841  0.00  0.00    -0.000 C 
ATOM     21  C   UNL     1      34.368  -6.608 -24.552  0.00  0.00    -0.000 C 
ENDBRANCH  15  16
ENDBRANCH  14  15
ENDBRANCH  11  14
ENDBRANCH   9  11
ENDBRANCH   5   9
ENDBRANCH   1   5
BRANCH   1  22
ATOM     22  C   UNL     1      33.198 -16.372 -21.887  0.00  0.00    +0.104 C 
BRANCH  22  23
ATOM     23  C   UNL     1      34.618 -16.910 -22.102  0.00  0.00    +0.131 C 
BRANCH  23  24
ATOM     24  C   UNL     1      34.858 -18.240 -21.405  0.00  0.00    -0.012 C 
ATOM     25  C   UNL     1      33.771 -18.984 -20.991  0.00  0.00    -0.010 C 
ATOM     26  C   UNL     1      36.156 -18.665 -21.206  0.00  0.00    -0.004 C 
ATOM     27  C   UNL     1      33.992 -20.203 -20.351  0.00  0.00    -0.045 C 
ATOM     28  C   UNL     1      36.377 -19.884 -20.565  0.00  0.00    -0.001 C 
ATOM     29  C   UNL     1      35.295 -20.654 -20.138  0.00  0.00    -0.006 C 
BRANCH  27  30
ATOM     30  C   UNL     1      32.835 -21.026 -19.892  0.00  0.00    -0.059 C 
BRANCH  30  31
ATOM     31  N   UNL     1      33.233 -22.376 -19.493  0.00  0.00    +0.383 N 
ATOM     32  H   UNL     1      32.510 -23.040 -19.768  0.00  0.00    -0.089 HD
ATOM     33  H   UNL     1      33.359 -22.409 -18.481  0.00  0.00    -0.089 HD
ATOM     34  H   UNL     1      34.112 -22.621 -19.952  0.00  0.00    -0.089 HD
ENDBRANCH  30  31
ENDBRANCH  27  30
ENDBRANCH  23  24
BRANCH  23  36
ATOM     35  O   UNL     1      34.503 -17.846 -24.358  0.00  0.00    -0.250 OA
ATOM     36  C   UNL     1      34.929 -16.993 -23.590  0.00  0.00    +0.318 C 
BRANCH  36  37
ATOM     37  O   UNL     1      35.755 -15.992 -23.997  0.00  0.00    -0.480 OA
ATOM     38  H   UNL     1      36.147 -15.423 -23.364  0.00  0.00    +0.295 HD
ENDBRANCH  36  37
ENDBRANCH  23  36
ENDBRANCH  22  23
ENDBRANCH   1  22
TORSDOF 15
ENDMDL
MODEL 2
REMARK VINA RESULT:      -9.2      0.806      1.593
REMARK  Name = 23653507
REMARK  15 active torsions:
REMARK  status: ('A' for Active; 'I' for Inactive)
REMARK    1  A    between atoms: P_1  and  O_3
REMARK    2  A    between atoms: P_1  and  C_5
REMARK    3  A    between atoms: P_1  and  C_22
REMARK    4  A    between atoms: C_5  and  C_6
REMARK    5  A    between atoms: C_5  and  N_9
REMARK    6  A    between atoms: N_9  and  S_11
REMARK    7  A    between atoms: S_11  and  C_14
REMARK    8  A    between atoms: C_14  and  C_15
REMARK    9  A    between atoms: C_15  and  C_16
REMARK   10  A    between atoms: C_22  and  C_23
REMARK   11  A    between atoms: C_23  and  C_24
REMARK   12  A    between atoms: C_23  and  C_36
REMARK   13  A    between atoms: C_27  and  C_30
REMARK   14  A    between atoms: C_30  and  N_31
REMARK   15  A    between atoms: C_36  and  O_37
REMARK                            x       y       z     vdW  Elec       q    Type
REMARK                         _______ _______ _______ _____ _____    ______ ____
ROOT
ATOM      1  P   UNL     1      33.246 -14.712 -21.236  0.00  0.00    +0.236 P 
ATOM      2  O   UNL     1      32.528 -14.630 -19.921  0.00  0.00    -0.288 OA
ENDROOT
BRANCH   1   3
ATOM      3  O   UNL     1      34.846 -14.504 -21.124  0.00  0.00    -0.342 OA
ATOM      4  H   UNL     1      35.169 -14.049 -21.917  0.00  0.00    +0.218 HD
ENDBRANCH   1   3
BRANCH   1   5
ATOM      5  C   UNL     1      32.733 -13.515 -22.467  0.00  0.00    +0.152 C 
BRANCH   5   6
ATOM      6  C   UNL     1      33.504 -13.475 -23.803  0.00  0.00    +0.025 C 
ATOM      7  C   UNL     1      32.846 -14.291 -24.918  0.00  0.00    +0.002 C 
ATOM      8  C   UNL     1      33.739 -12.041 -24.282  0.00  0.00    +0.002 C 
ENDBRANCH   5   6
BRANCH   5   9
ATOM      9  N   UNL     1      32.858 -12.190 -21.810  0.00  0.00    -0.175 NA
ATOM     10  H   UNL     1      33.498 -12.317 -21.025  0.00  0.00    +0.149 HD
BRANCH   9  11
ATOM     11  S   UNL     1      31.504 -11.372 -21.196  0.00  0.00    +0.042 S 
ATOM     12  O   UNL     1      31.350 -11.654 -19.782  0.00  0.00    -0.157 OA
ATOM     13  O   UNL     1      30.398 -11.559 -22.115  0.00  0.00    -0.157 OA
BRANCH  11  14
ATOM     14  C   UNL     1      32.033  -9.683 -21.357  0.00  0.00    +0.173 C 
BRANCH  14  15
ATOM     15  C   UNL     1      31.497  -9.016 -22.618  0.00  0.00    +0.053 C 
BRANCH  15  16
ATOM     16  C   UNL     1      32.516  -8.158 -23.326  0.00  0.00    -0.020 C 
ATOM     17  C   UNL     1      33.857  -8.506 -23.268  0.00  0.00    -0.004 C 
ATOM     18  C   UNL     1      32.094  -7.037 -24.025  0.00  0.00    -0.004 C 
ATOM     19  C   UNL     1      34.799  -7.713 -23.924  0.00  0.00    -0.000 C 
ATOM     20  C   UNL     1      33.036  -6.244 -24.681  0.00  0.00    -0.000 C 
ATOM     21  C   UNL     1      34.389  -6.582 -24.630  0.00  0.00    -0.000 C 
ENDBRANCH  15  16
ENDBRANCH  14  15
ENDBRANCH  11  14
ENDBRANCH   9  11
ENDBRANCH   5   9
ENDBRANCH   1   5
BRANCH   1  22
ATOM     22  C   UNL     1      33.137 -16.327 -21.989  0.00  0.00    +0.104 C 
BRANCH  22  23
ATOM     23  C   UNL     1      34.452 -17.112 -21.919  0.00  0.00    +0.131 C 
BRANCH  23  24
ATOM     24  C   UNL     1      34.296 -18.468 -21.250  0.00  0.00    -0.012 C 
ATOM     25  C   UNL     1      35.429 -19.168 -20.883  0.00  0.00    -0.010 C 
ATOM     26  C   UNL     1      33.026 -18.962 -21.028  0.00  0.00    -0.004 C 
ATOM     27  C   UNL     1      35.286 -20.412 -20.270  0.00  0.00    -0.045 C 
ATOM     28  C   UNL     1      32.883 -20.206 -20.414  0.00  0.00    -0.001 C 
ATOM     29  C   UNL     1      34.012 -20.931 -20.035  0.00  0.00    -0.006 C 
BRANCH  27  30
ATOM     30  C   UNL     1      36.493 -21.189 -19.866  0.00  0.00    -0.059 C 
BRANCH  30  31
ATOM     31  N   UNL     1      36.650 -21.262 -18.413  0.00  0.00    +0.383 N 
ATOM     32  H   UNL     1      37.513 -20.792 -18.140  0.00  0.00    -0.089 HD
ATOM     33  H   UNL     1      36.687 -22.239 -18.123  0.00  0.00    -0.089 HD
ATOM     34  H   UNL     1      35.857 -20.803 -17.962  0.00  0.00    -0.089 HD
ENDBRANCH  30  31
ENDBRANCH  27  30
ENDBRANCH  23  24
BRANCH  23  36
ATOM     35  O   UNL     1      34.937 -18.201 -24.054  0.00  0.00    -0.250 OA
ATOM     36  C   UNL     1      35.064 -17.239 -23.308  0.00  0.00    +0.318 C 
BRANCH  36  37
ATOM     37  O   UNL     1      35.789 -16.141 -23.650  0.00  0.00    -0.480 OA
ATOM     38  H   UNL     1      35.352 -15.348 -23.891  0.00  0.00    +0.295 HD
ENDBRANCH  36  37
ENDBRANCH  23  36
ENDBRANCH  22  23
ENDBRANCH   1  22
TORSDOF 15
ENDMDL
MODEL 3
REMARK VINA RESULT:      -9.2      1.789      2.820
REMARK  Name = 23653507
REMARK  15 active torsions:
REMARK  status: ('A' for Active; 'I' for Inactive)
REMARK    1  A    between atoms: P_1  and  O_3
REMARK    2  A    between atoms: P_1  and  C_5
REMARK    3  A    between atoms: P_1  and  C_22
REMARK    4  A    between atoms: C_5  and  C_6
REMARK    5  A    between atoms: C_5  and  N_9
REMARK    6  A    between atoms: N_9  and  S_11
REMARK    7  A    between atoms: S_11  and  C_14
REMARK    8  A    between atoms: C_14  and  C_15
REMARK    9  A    between atoms: C_15  and  C_16
REMARK   10  A    between atoms: C_22  and  C_23
REMARK   11  A    between atoms: C_23  and  C_24
REMARK   12  A    between atoms: C_23  and  C_36
REMARK   13  A    between atoms: C_27  and  C_30
REMARK   14  A    between atoms: C_30  and  N_31
REMARK   15  A    between atoms: C_36  and  O_37
REMARK                            x       y       z     vdW  Elec       q    Type
REMARK                         _______ _______ _______ _____ _____    ______ ____
ROOT
ATOM      1  P   UNL     1      33.117 -14.852 -20.728  0.00  0.00    +0.236 P 
ATOM      2  O   UNL     1      32.338 -15.213 -19.498  0.00  0.00    -0.288 OA
ENDROOT
BRANCH   1   3
ATOM      3  O   UNL     1      34.705 -14.684 -20.472  0.00  0.00    -0.342 OA
ATOM      4  H   UNL     1      34.878 -14.664 -19.518  0.00  0.00    +0.218 HD
ENDBRANCH   1   3
BRANCH   1   5
ATOM      5  C   UNL     1      32.634 -13.318 -21.519  0.00  0.00    +0.152 C 
BRANCH   5   6
ATOM      6  C   UNL     1      31.482 -12.509 -20.889  0.00  0.00    +0.025 C 
ATOM      7  C   UNL     1      31.895 -11.714 -19.649  0.00  0.00    +0.002 C 
ATOM      8  C   UNL     1      30.818 -11.577 -21.904  0.00  0.00    +0.002 C 
ENDBRANCH   5   6
BRANCH   5   9
ATOM      9  N   UNL     1      32.248 -13.690 -22.904  0.00  0.00    -0.175 NA
ATOM     10  H   UNL     1      31.950 -14.664 -22.868  0.00  0.00    +0.149 HD
BRANCH   9  11
ATOM     11  S   UNL     1      33.345 -13.571 -24.193  0.00  0.00    +0.042 S 
ATOM     12  O   UNL     1      32.875 -14.353 -25.320  0.00  0.00    -0.157 OA
ATOM     13  O   UNL     1      34.687 -13.750 -23.674  0.00  0.00    -0.157 OA
BRANCH  11  14
ATOM     14  C   UNL     1      33.177 -11.853 -24.618  0.00  0.00    +0.173 C 
BRANCH  14  15
ATOM     15  C   UNL     1      34.265 -10.984 -23.999  0.00  0.00    +0.053 C 
BRANCH  15  16
ATOM     16  C   UNL     1      33.880  -9.531 -23.878  0.00  0.00    -0.020 C 
ATOM     17  C   UNL     1      32.560  -9.195 -23.621  0.00  0.00    -0.004 C 
ATOM     18  C   UNL     1      34.855  -8.555 -24.023  0.00  0.00    -0.004 C 
ATOM     19  C   UNL     1      32.205  -7.850 -23.509  0.00  0.00    -0.000 C 
ATOM     20  C   UNL     1      34.500  -7.210 -23.911  0.00  0.00    -0.000 C 
ATOM     21  C   UNL     1      33.174  -6.859 -23.654  0.00  0.00    -0.000 C 
ENDBRANCH  15  16
ENDBRANCH  14  15
ENDBRANCH  11  14
ENDBRANCH   9  11
ENDBRANCH   5   9
ENDBRANCH   1   5
BRANCH   1  22
ATOM     22  C   UNL     1      33.079 -16.127 -21.975  0.00  0.00    +0.104 C 
BRANCH  22  23
ATOM     23  C   UNL     1      34.362 -16.966 -22.018  0.00  0.00    +0.131 C 
BRANCH  23  24
ATOM     24  C   UNL     1      34.215 -18.308 -21.319  0.00  0.00    -0.012 C 
ATOM     25  C   UNL     1      35.352 -19.016 -20.985  0.00  0.00    -0.010 C 
ATOM     26  C   UNL     1      32.948 -18.780 -21.040  0.00  0.00    -0.004 C 
ATOM     27  C   UNL     1      35.216 -20.248 -20.344  0.00  0.00    -0.045 C 
ATOM     28  C   UNL     1      32.812 -20.012 -20.400  0.00  0.00    -0.001 C 
ATOM     29  C   UNL     1      33.945 -20.746 -20.052  0.00  0.00    -0.006 C 
BRANCH  27  30
ATOM     30  C   UNL     1      36.428 -21.035 -19.974  0.00  0.00    -0.059 C 
BRANCH  30  31
ATOM     31  N   UNL     1      36.530 -21.257 -18.531  0.00  0.00    +0.383 N 
ATOM     32  H   UNL     1      35.595 -21.308 -18.128  0.00  0.00    -0.089 HD
ATOM     33  H   UNL     1      37.044 -20.486 -18.104  0.00  0.00    -0.089 HD
ATOM     34  H   UNL     1      37.024 -22.133 -18.356  0.00  0.00    -0.089 HD
ENDBRANCH  30  31
ENDBRANCH  27  30
ENDBRANCH  23  24
BRANCH  23  36
ATOM     35  O   UNL     1      34.432 -17.975 -24.243  0.00  0.00    -0.250 OA
ATOM     36  C   UNL     1      34.836 -17.130 -23.455  0.00  0.00    +0.318 C 
BRANCH  36  37
ATOM     37  O   UNL     1      35.785 -16.215 -23.789  0.00  0.00    -0.480 OA
ATOM     38  H   UNL     1      36.590 -16.181 -23.311  0.00  0.00    +0.295 HD
ENDBRANCH  36  37
ENDBRANCH  23  36
ENDBRANCH  22  23
ENDBRANCH   1  22
TORSDOF 15
ENDMDL
MODEL 4
REMARK VINA RESULT:      -9.0      2.774      9.889
REMARK  Name = 23653507
REMARK  15 active torsions:
REMARK  status: ('A' for Active; 'I' for Inactive)
REMARK    1  A    between atoms: P_1  and  O_3
REMARK    2  A    between atoms: P_1  and  C_5
REMARK    3  A    between atoms: P_1  and  C_22
REMARK    4  A    between atoms: C_5  and  C_6
REMARK    5  A    between atoms: C_5  and  N_9
REMARK    6  A    between atoms: N_9  and  S_11
REMARK    7  A    between atoms: S_11  and  C_14
REMARK    8  A    between atoms: C_14  and  C_15
REMARK    9  A    between atoms: C_15  and  C_16
REMARK   10  A    between atoms: C_22  and  C_23
REMARK   11  A    between atoms: C_23  and  C_24
REMARK   12  A    between atoms: C_23  and  C_36
REMARK   13  A    between atoms: C_27  and  C_30
REMARK   14  A    between atoms: C_30  and  N_31
REMARK   15  A    between atoms: C_36  and  O_37
REMARK                            x       y       z     vdW  Elec       q    Type
REMARK                         _______ _______ _______ _____ _____    ______ ____
ROOT
ATOM      1  P   UNL     1      31.650 -10.827 -21.675  0.00  0.00    +0.236 P 
ATOM      2  O   UNL     1      31.916 -10.604 -20.215  0.00  0.00    -0.288 OA
ENDROOT
BRANCH   1   3
ATOM      3  O   UNL     1      30.188 -11.444 -21.987  0.00  0.00    -0.342 OA
ATOM      4  H   UNL     1      30.278 -12.196 -22.593  0.00  0.00    +0.218 HD
ENDBRANCH   1   3
BRANCH   1   5
ATOM      5  C   UNL     1      32.783 -11.943 -22.500  0.00  0.00    +0.152 C 
BRANCH   5   6
ATOM      6  C   UNL     1      33.115 -11.673 -23.982  0.00  0.00    +0.025 C 
ATOM      7  C   UNL     1      34.381 -10.839 -24.187  0.00  0.00    +0.002 C 
ATOM      8  C   UNL     1      33.213 -12.969 -24.789  0.00  0.00    +0.002 C 
ENDBRANCH   5   6
BRANCH   5   9
ATOM      9  N   UNL     1      32.165 -13.288 -22.392  0.00  0.00    -0.175 NA
ATOM     10  H   UNL     1      31.165 -13.136 -22.264  0.00  0.00    +0.149 HD
BRANCH   9  11
ATOM     11  S   UNL     1      32.639 -14.390 -21.191  0.00  0.00    +0.042 S 
ATOM     12  O   UNL     1      31.951 -15.653 -21.374  0.00  0.00    -0.157 OA
ATOM     13  O   UNL     1      32.617 -13.711 -19.910  0.00  0.00    -0.157 OA
BRANCH  11  14
ATOM     14  C   UNL     1      34.347 -14.636 -21.620  0.00  0.00    +0.173 C 
BRANCH  14  15
ATOM     15  C   UNL     1      34.814 -16.066 -21.378  0.00  0.00    +0.053 C 
BRANCH  15  16
ATOM     16  C   UNL     1      34.764 -16.933 -22.611  0.00  0.00    -0.020 C 
ATOM     17  C   UNL     1      34.628 -16.339 -23.856  0.00  0.00    -0.004 C 
ATOM     18  C   UNL     1      34.858 -18.311 -22.478  0.00  0.00    -0.004 C 
ATOM     19  C   UNL     1      34.582 -17.142 -24.997  0.00  0.00    -0.000 C 
ATOM     20  C   UNL     1      34.812 -19.113 -23.619  0.00  0.00    -0.000 C 
ATOM     21  C   UNL     1      34.674 -18.528 -24.878  0.00  0.00    -0.000 C 
ENDBRANCH  15  16
ENDBRANCH  14  15
ENDBRANCH  11  14
ENDBRANCH   9  11
ENDBRANCH   5   9
ENDBRANCH   1   5
BRANCH   1  22
ATOM     22  C   UNL     1      31.618  -9.311 -22.616  0.00  0.00    +0.104 C 
BRANCH  22  23
ATOM     23  C   UNL     1      32.753  -8.349 -22.245  0.00  0.00    +0.131 C 
BRANCH  23  24
ATOM     24  C   UNL     1      33.125  -7.408 -23.381  0.00  0.00    -0.012 C 
ATOM     25  C   UNL     1      32.169  -6.541 -23.871  0.00  0.00    -0.010 C 
ATOM     26  C   UNL     1      34.408  -7.449 -23.889  0.00  0.00    -0.004 C 
ATOM     27  C   UNL     1      32.510  -5.679 -24.912  0.00  0.00    -0.045 C 
ATOM     28  C   UNL     1      34.749  -6.586 -24.931  0.00  0.00    -0.001 C 
ATOM     29  C   UNL     1      33.801  -5.701 -25.442  0.00  0.00    -0.006 C 
BRANCH  27  30
ATOM     30  C   UNL     1      31.496  -4.733 -25.462  0.00  0.00    -0.059 C 
BRANCH  30  31
ATOM     31  N   UNL     1      30.722  -4.072 -24.410  0.00  0.00    +0.383 N 
ATOM     32  H   UNL     1      30.568  -3.096 -24.664  0.00  0.00    -0.089 HD
ATOM     33  H   UNL     1      31.236  -4.118 -23.530  0.00  0.00    -0.089 HD
ATOM     34  H   UNL     1      29.822  -4.542 -24.304  0.00  0.00    -0.089 HD
ENDBRANCH  30  31
ENDBRANCH  27  30
ENDBRANCH  23  24
BRANCH  23  36
ATOM     35  O   UNL     1      31.565  -6.697 -20.891  0.00  0.00    -0.250 OA
ATOM     36  C   UNL     1      32.403  -7.586 -20.976  0.00  0.00    +0.318 C 
BRANCH  36  37
ATOM     37  O   UNL     1      33.137  -8.002 -19.909  0.00  0.00    -0.480 OA
ATOM     38  H   UNL     1      33.180  -8.913 -19.698  0.00  0.00    +0.295 HD
ENDBRANCH  36  37
ENDBRANCH  23  36
ENDBRANCH  22  23
ENDBRANCH   1  22
TORSDOF 15
ENDMDL
MODEL 5
REMARK VINA RESULT:      -8.9      2.016      3.358
REMARK  Name = 23653507
REMARK  15 active torsions:
REMARK  status: ('A' for Active; 'I' for Inactive)
REMARK    1  A    between atoms: P_1  and  O_3
REMARK    2  A    between atoms: P_1  and  C_5
REMARK    3  A    between atoms: P_1  and  C_22
REMARK    4  A    between atoms: C_5  and  C_6
REMARK    5  A    between atoms: C_5  and  N_9
REMARK    6  A    between atoms: N_9  and  S_11
REMARK    7  A    between atoms: S_11  and  C_14
REMARK    8  A    between atoms: C_14  and  C_15
REMARK    9  A    between atoms: C_15  and  C_16
REMARK   10  A    between atoms: C_22  and  C_23
REMARK   11  A    between atoms: C_23  and  C_24
REMARK   12  A    between atoms: C_23  and  C_36
REMARK   13  A    between atoms: C_27  and  C_30
REMARK   14  A    between atoms: C_30  and  N_31
REMARK   15  A    between atoms: C_36  and  O_37
REMARK                            x       y       z     vdW  Elec       q    Type
REMARK                         _______ _______ _______ _____ _____    ______ ____
ROOT
ATOM      1  P   UNL     1      32.975 -13.131 -24.070  0.00  0.00    +0.236 P 
ATOM      2  O   UNL     1      32.911 -13.745 -25.437  0.00  0.00    -0.288 OA
ENDROOT
BRANCH   1   3
ATOM      3  O   UNL     1      31.633 -13.342 -23.193  0.00  0.00    -0.342 OA
ATOM      4  H   UNL     1      30.922 -12.788 -23.553  0.00  0.00    +0.218 HD
ENDBRANCH   1   3
BRANCH   1   5
ATOM      5  C   UNL     1      33.248 -11.360 -24.035  0.00  0.00    +0.152 C 
BRANCH   5   6
ATOM      6  C   UNL     1      34.624 -10.830 -24.490  0.00  0.00    +0.025 C 
ATOM      7  C   UNL     1      34.912 -11.060 -25.974  0.00  0.00    +0.002 C 
ATOM      8  C   UNL     1      34.804  -9.349 -24.151  0.00  0.00    +0.002 C 
ENDBRANCH   5   6
BRANCH   5   9
ATOM      9  N   UNL     1      33.027 -10.951 -22.626  0.00  0.00    -0.175 NA
ATOM     10  H   UNL     1      33.112 -11.797 -22.063  0.00  0.00    +0.149 HD
BRANCH   9  11
ATOM     11  S   UNL     1      31.589 -10.194 -22.136  0.00  0.00    +0.042 S 
ATOM     12  O   UNL     1      30.756 -11.130 -21.407  0.00  0.00    -0.157 OA
ATOM     13  O   UNL     1      31.057  -9.446 -23.260  0.00  0.00    -0.157 OA
BRANCH  11  14
ATOM     14  C   UNL     1      32.216  -9.006 -20.972  0.00  0.00    +0.173 C 
BRANCH  14  15
ATOM     15  C   UNL     1      33.139  -7.979 -21.618  0.00  0.00    +0.053 C 
BRANCH  15  16
ATOM     16  C   UNL     1      32.404  -6.825 -22.254  0.00  0.00    -0.020 C 
ATOM     17  C   UNL     1      31.413  -6.172 -21.539  0.00  0.00    -0.004 C 
ATOM     18  C   UNL     1      32.736  -6.436 -23.544  0.00  0.00    -0.004 C 
ATOM     19  C   UNL     1      30.734  -5.104 -22.128  0.00  0.00    -0.000 C 
ATOM     20  C   UNL     1      32.057  -5.369 -24.132  0.00  0.00    -0.000 C 
ATOM     21  C   UNL     1      31.056  -4.703 -23.424  0.00  0.00    -0.000 C 
ENDBRANCH  15  16
ENDBRANCH  14  15
ENDBRANCH  11  14
ENDBRANCH   9  11
ENDBRANCH   5   9
ENDBRANCH   1   5
BRANCH   1  22
ATOM     22  C   UNL     1      34.215 -13.879 -23.028  0.00  0.00    +0.104 C 
BRANCH  22  23
ATOM     23  C   UNL     1      33.686 -15.072 -22.224  0.00  0.00    +0.131 C 
BRANCH  23  24
ATOM     24  C   UNL     1      34.242 -16.403 -22.706  0.00  0.00    -0.012 C 
ATOM     25  C   UNL     1      34.480 -17.402 -21.782  0.00  0.00    -0.010 C 
ATOM     26  C   UNL     1      34.494 -16.574 -24.052  0.00  0.00    -0.004 C 
ATOM     27  C   UNL     1      34.992 -18.622 -22.224  0.00  0.00    -0.045 C 
ATOM     28  C   UNL     1      35.005 -17.794 -24.494  0.00  0.00    -0.001 C 
ATOM     29  C   UNL     1      35.254 -18.818 -23.581  0.00  0.00    -0.006 C 
BRANCH  27  30
ATOM     30  C   UNL     1      35.260 -19.717 -21.247  0.00  0.00    -0.059 C 
BRANCH  30  31
ATOM     31  N   UNL     1      36.402 -19.425 -20.381  0.00  0.00    +0.383 N 
ATOM     32  H   UNL     1      37.222 -19.929 -20.717  0.00  0.00    -0.089 HD
ATOM     33  H   UNL     1      36.189 -19.717 -19.427  0.00  0.00    -0.089 HD
ATOM     34  H   UNL     1      36.591 -18.421 -20.395  0.00  0.00    -0.089 HD
ENDBRANCH  30  31
ENDBRANCH  27  30
ENDBRANCH  23  24
BRANCH  23  36
ATOM     35  O   UNL     1      35.040 -14.695 -20.224  0.00  0.00    -0.250 OA
ATOM     36  C   UNL     1      33.941 -14.862 -20.739  0.00  0.00    +0.318 C 
BRANCH  36  37
ATOM     37  O   UNL     1      32.791 -14.877 -20.014  0.00  0.00    -0.480 OA
ATOM     38  H   UNL     1      32.803 -14.627 -19.111  0.00  0.00    +0.295 HD
ENDBRANCH  36  37
ENDBRANCH  23  36
ENDBRANCH  22  23
ENDBRANCH   1  22
TORSDOF 15
ENDMDL
MODEL 6
REMARK VINA RESULT:      -8.8      3.151     10.001
REMARK  Name = 23653507
REMARK  15 active torsions:
REMARK  status: ('A' for Active; 'I' for Inactive)
REMARK    1  A    between atoms: P_1  and  O_3
REMARK    2  A    between atoms: P_1  and  C_5
REMARK    3  A    between atoms: P_1  and  C_22
REMARK    4  A    between atoms: C_5  and  C_6
REMARK    5  A    between atoms: C_5  and  N_9
REMARK    6  A    between atoms: N_9  and  S_11
REMARK    7  A    between atoms: S_11  and  C_14
REMARK    8  A    between atoms: C_14  and  C_15
REMARK    9  A    between atoms: C_15  and  C_16
REMARK   10  A    between atoms: C_22  and  C_23
REMARK   11  A    between atoms: C_23  and  C_24
REMARK   12  A    between atoms: C_23  and  C_36
REMARK   13  A    between atoms: C_27  and  C_30
REMARK   14  A    between atoms: C_30  and  N_31
REMARK   15  A    between atoms: C_36  and  O_37
REMARK                            x       y       z     vdW  Elec       q    Type
REMARK                         _______ _______ _______ _____ _____    ______ ____
ROOT
ATOM      1  P   UNL     1      34.171 -15.431 -23.810  0.00  0.00    +0.236 P 
ATOM      2  O   UNL     1      33.315 -15.614 -25.029  0.00  0.00    -0.288 OA
ENDROOT
BRANCH   1   3
ATOM      3  O   UNL     1      35.708 -15.891 -24.015  0.00  0.00    -0.342 OA
ATOM      4  H   UNL     1      35.790 -16.837 -23.821  0.00  0.00    +0.218 HD
ENDBRANCH   1   3
BRANCH   1   5
ATOM      5  C   UNL     1      33.635 -16.326 -22.354  0.00  0.00    +0.152 C 
BRANCH   5   6
ATOM      6  C   UNL     1      33.259 -15.510 -21.099  0.00  0.00    +0.025 C 
ATOM      7  C   UNL     1      32.004 -16.018 -20.388  0.00  0.00    +0.002 C 
ATOM      8  C   UNL     1      34.419 -15.428 -20.105  0.00  0.00    +0.002 C 
ENDBRANCH   5   6
BRANCH   5   9
ATOM      9  N   UNL     1      34.759 -17.233 -22.009  0.00  0.00    -0.175 NA
ATOM     10  H   UNL     1      35.459 -17.115 -22.740  0.00  0.00    +0.149 HD
BRANCH   9  11
ATOM     11  S   UNL     1      34.529 -18.905 -21.831  0.00  0.00    +0.042 S 
ATOM     12  O   UNL     1      34.823 -19.583 -23.078  0.00  0.00    -0.157 OA
ATOM     13  O   UNL     1      33.270 -19.126 -21.144  0.00  0.00    -0.157 OA
BRANCH  11  14
ATOM     14  C   UNL     1      35.824 -19.300 -20.681  0.00  0.00    +0.173 C 
BRANCH  14  15
ATOM     15  C   UNL     1      36.149 -20.789 -20.648  0.00  0.00    +0.053 C 
BRANCH  15  16
ATOM     16  C   UNL     1      35.641 -21.489 -19.412  0.00  0.00    -0.020 C 
ATOM     17  C   UNL     1      34.331 -21.941 -19.375  0.00  0.00    -0.004 C 
ATOM     18  C   UNL     1      36.495 -21.672 -18.334  0.00  0.00    -0.004 C 
ATOM     19  C   UNL     1      33.862 -22.589 -18.231  0.00  0.00    -0.000 C 
ATOM     20  C   UNL     1      36.026 -22.320 -17.191  0.00  0.00    -0.000 C 
ATOM     21  C   UNL     1      34.709 -22.778 -17.141  0.00  0.00    -0.000 C 
ENDBRANCH  15  16
ENDBRANCH  14  15
ENDBRANCH  11  14
ENDBRANCH   9  11
ENDBRANCH   5   9
ENDBRANCH   1   5
BRANCH   1  22
ATOM     22  C   UNL     1      34.359 -13.720 -23.342  0.00  0.00    +0.104 C 
BRANCH  22  23
ATOM     23  C   UNL     1      33.295 -12.806 -23.961  0.00  0.00    +0.131 C 
BRANCH  23  24
ATOM     24  C   UNL     1      32.579 -11.948 -22.930  0.00  0.00    -0.012 C 
ATOM     25  C   UNL     1      32.576 -10.576 -23.087  0.00  0.00    -0.010 C 
ATOM     26  C   UNL     1      31.953 -12.565 -21.865  0.00  0.00    -0.004 C 
ATOM     27  C   UNL     1      31.920  -9.789 -22.141  0.00  0.00    -0.045 C 
ATOM     28  C   UNL     1      31.297 -11.779 -20.919  0.00  0.00    -0.001 C 
ATOM     29  C   UNL     1      31.280 -10.391 -21.056  0.00  0.00    -0.006 C 
BRANCH  27  30
ATOM     30  C   UNL     1      31.903  -8.305 -22.286  0.00  0.00    -0.059 C 
BRANCH  30  31
ATOM     31  N   UNL     1      31.005  -7.859 -23.352  0.00  0.00    +0.383 N 
ATOM     32  H   UNL     1      30.150  -8.414 -23.331  0.00  0.00    -0.089 HD
ATOM     33  H   UNL     1      31.465  -7.974 -24.255  0.00  0.00    -0.089 HD
ATOM     34  H   UNL     1      30.775  -6.874 -23.212  0.00  0.00    -0.089 HD
ENDBRANCH  30  31
ENDBRANCH  27  30
ENDBRANCH  23  24
BRANCH  23  36
ATOM     35  O   UNL     1      33.550 -11.955 -26.239  0.00  0.00    -0.250 OA
ATOM     36  C   UNL     1      33.907 -11.959 -25.068  0.00  0.00    +0.318 C 
BRANCH  36  37
ATOM     37  O   UNL     1      34.926 -11.181 -24.613  0.00  0.00    -0.480 OA
ATOM     38  H   UNL     1      35.334 -10.563 -25.186  0.00  0.00    +0.295 HD
ENDBRANCH  36  37
ENDBRANCH  23  36
ENDBRANCH  22  23
ENDBRANCH   1  22
TORSDOF 15
ENDMDL
MODEL 7
REMARK VINA RESULT:      -8.8      3.241      9.822
REMARK  Name = 23653507
REMARK  15 active torsions:
REMARK  status: ('A' for Active; 'I' for Inactive)
REMARK    1  A    between atoms: P_1  and  O_3
REMARK    2  A    between atoms: P_1  and  C_5
REMARK    3  A    between atoms: P_1  and  C_22
REMARK    4  A    between atoms: C_5  and  C_6
REMARK    5  A    between atoms: C_5  and  N_9
REMARK    6  A    between atoms: N_9  and  S_11
REMARK    7  A    between atoms: S_11  and  C_14
REMARK    8  A    between atoms: C_14  and  C_15
REMARK    9  A    between atoms: C_15  and  C_16
REMARK   10  A    between atoms: C_22  and  C_23
REMARK   11  A    between atoms: C_23  and  C_24
REMARK   12  A    between atoms: C_23  and  C_36
REMARK   13  A    between atoms: C_27  and  C_30
REMARK   14  A    between atoms: C_30  and  N_31
REMARK   15  A    between atoms: C_36  and  O_37
REMARK                            x       y       z     vdW  Elec       q    Type
REMARK                         _______ _______ _______ _____ _____    ______ ____
ROOT
ATOM      1  P   UNL     1      34.519 -16.327 -23.775  0.00  0.00    +0.236 P 
ATOM      2  O   UNL     1      33.908 -17.077 -24.922  0.00  0.00    -0.288 OA
ENDROOT
BRANCH   1   3
ATOM      3  O   UNL     1      36.069 -16.698 -23.502  0.00  0.00    -0.342 OA
ATOM      4  H   UNL     1      36.626 -15.933 -23.715  0.00  0.00    +0.218 HD
ENDBRANCH   1   3
BRANCH   1   5
ATOM      5  C   UNL     1      33.723 -16.570 -22.187  0.00  0.00    +0.152 C 
BRANCH   5   6
ATOM      6  C   UNL     1      33.415 -15.323 -21.333  0.00  0.00    +0.025 C 
ATOM      7  C   UNL     1      32.164 -15.466 -20.464  0.00  0.00    +0.002 C 
ATOM      8  C   UNL     1      34.607 -14.920 -20.463  0.00  0.00    +0.002 C 
ENDBRANCH   5   6
BRANCH   5   9
ATOM      9  N   UNL     1      34.633 -17.456 -21.419  0.00  0.00    -0.175 NA
ATOM     10  H   UNL     1      35.581 -17.224 -21.716  0.00  0.00    +0.149 HD
BRANCH   9  11
ATOM     11  S   UNL     1      34.506 -19.146 -21.500  0.00  0.00    +0.042 S 
ATOM     12  O   UNL     1      34.792 -19.603 -22.846  0.00  0.00    -0.157 OA
ATOM     13  O   UNL     1      33.288 -19.549 -20.823  0.00  0.00    -0.157 OA
BRANCH  11  14
ATOM     14  C   UNL     1      35.863 -19.634 -20.462  0.00  0.00    +0.173 C 
BRANCH  14  15
ATOM     15  C   UNL     1      36.045 -21.146 -20.403  0.00  0.00    +0.053 C 
BRANCH  15  16
ATOM     16  C   UNL     1      35.712 -21.741 -19.057  0.00  0.00    -0.020 C 
ATOM     17  C   UNL     1      36.668 -21.733 -18.053  0.00  0.00    -0.004 C 
ATOM     18  C   UNL     1      34.453 -22.284 -18.846  0.00  0.00    -0.004 C 
ATOM     19  C   UNL     1      36.359 -22.282 -16.809  0.00  0.00    -0.000 C 
ATOM     20  C   UNL     1      34.144 -22.834 -17.602  0.00  0.00    -0.000 C 
ATOM     21  C   UNL     1      35.098 -22.833 -16.583  0.00  0.00    -0.000 C 
ENDBRANCH  15  16
ENDBRANCH  14  15
ENDBRANCH  11  14
ENDBRANCH   9  11
ENDBRANCH   5   9
ENDBRANCH   1   5
BRANCH   1  22
ATOM     22  C   UNL     1      34.607 -14.568 -24.060  0.00  0.00    +0.104 C 
BRANCH  22  23
ATOM     23  C   UNL     1      33.253 -13.950 -24.428  0.00  0.00    +0.131 C 
BRANCH  23  24
ATOM     24  C   UNL     1      33.089 -12.531 -23.905  0.00  0.00    -0.012 C 
ATOM     25  C   UNL     1      32.246 -12.306 -22.835  0.00  0.00    -0.010 C 
ATOM     26  C   UNL     1      33.787 -11.509 -24.516  0.00  0.00    -0.004 C 
ATOM     27  C   UNL     1      32.095 -11.005 -22.356  0.00  0.00    -0.045 C 
ATOM     28  C   UNL     1      33.637 -10.208 -24.037  0.00  0.00    -0.001 C 
ATOM     29  C   UNL     1      32.791  -9.956 -22.957  0.00  0.00    -0.006 C 
BRANCH  27  30
ATOM     30  C   UNL     1      31.189 -10.734 -21.202  0.00  0.00    -0.059 C 
BRANCH  30  31
ATOM     31  N   UNL     1      31.384 -11.682 -20.104  0.00  0.00    +0.383 N 
ATOM     32  H   UNL     1      30.628 -12.366 -20.106  0.00  0.00    -0.089 HD
ATOM     33  H   UNL     1      31.387 -11.179 -19.217  0.00  0.00    -0.089 HD
ATOM     34  H   UNL     1      32.277 -12.163 -20.225  0.00  0.00    -0.089 HD
ENDBRANCH  30  31
ENDBRANCH  27  30
ENDBRANCH  23  24
BRANCH  23  36
ATOM     35  O   UNL     1      33.432 -13.202 -26.748  0.00  0.00    -0.250 OA
ATOM     36  C   UNL     1      33.032 -14.022 -25.932  0.00  0.00    +0.318 C 
BRANCH  36  37
ATOM     37  O   UNL     1      32.322 -15.125 -26.293  0.00  0.00    -0.480 OA
ATOM     38  H   UNL     1      31.662 -15.464 -25.722  0.00  0.00    +0.295 HD
ENDBRANCH  36  37
ENDBRANCH  23  36
ENDBRANCH  22  23
ENDBRANCH   1  22
TORSDOF 15
ENDMDL
MODEL 8
REMARK VINA RESULT:      -8.7      8.146     12.205
REMARK  Name = 23653507
REMARK  15 active torsions:
REMARK  status: ('A' for Active; 'I' for Inactive)
REMARK    1  A    between atoms: P_1  and  O_3
REMARK    2  A    between atoms: P_1  and  C_5
REMARK    3  A    between atoms: P_1  and  C_22
REMARK    4  A    between atoms: C_5  and  C_6
REMARK    5  A    between atoms: C_5  and  N_9
REMARK    6  A    between atoms: N_9  and  S_11
REMARK    7  A    between atoms: S_11  and  C_14
REMARK    8  A    between atoms: C_14  and  C_15
REMARK    9  A    between atoms: C_15  and  C_16
REMARK   10  A    between atoms: C_22  and  C_23
REMARK   11  A    between atoms: C_23  and  C_24
REMARK   12  A    between atoms: C_23  and  C_36
REMARK   13  A    between atoms: C_27  and  C_30
REMARK   14  A    between atoms: C_30  and  N_31
REMARK   15  A    between atoms: C_36  and  O_37
REMARK                            x       y       z     vdW  Elec       q    Type
REMARK                         _______ _______ _______ _____ _____    ______ ____
ROOT
ATOM      1  P   UNL     1      32.794 -23.796 -13.889  0.00  0.00    +0.236 P 
ATOM      2  O   UNL     1      32.458 -25.233 -13.614  0.00  0.00    -0.288 OA
ENDROOT
BRANCH   1   3
ATOM      3  O   UNL     1      32.152 -22.759 -12.827  0.00  0.00    -0.342 OA
ATOM      4  H   UNL     1      32.448 -21.859 -13.036  0.00  0.00    +0.218 HD
ENDBRANCH   1   3
BRANCH   1   5
ATOM      5  C   UNL     1      32.265 -23.176 -15.485  0.00  0.00    +0.152 C 
BRANCH   5   6
ATOM      6  C   UNL     1      30.835 -23.514 -15.955  0.00  0.00    +0.025 C 
ATOM      7  C   UNL     1      30.428 -24.965 -15.692  0.00  0.00    +0.002 C 
ATOM      8  C   UNL     1      29.797 -22.568 -15.348  0.00  0.00    +0.002 C 
ENDBRANCH   5   6
BRANCH   5   9
ATOM      9  N   UNL     1      33.229 -23.732 -16.467  0.00  0.00    -0.175 NA
ATOM     10  H   UNL     1      34.151 -23.660 -16.037  0.00  0.00    +0.149 HD
BRANCH   9  11
ATOM     11  S   UNL     1      33.377 -23.087 -18.029  0.00  0.00    +0.042 S 
ATOM     12  O   UNL     1      32.272 -22.189 -18.303  0.00  0.00    -0.157 OA
ATOM     13  O   UNL     1      33.701 -24.165 -18.943  0.00  0.00    -0.157 OA
BRANCH  11  14
ATOM     14  C   UNL     1      34.844 -22.101 -17.847  0.00  0.00    +0.173 C 
BRANCH  14  15
ATOM     15  C   UNL     1      35.675 -22.040 -19.123  0.00  0.00    +0.053 C 
BRANCH  15  16
ATOM     16  C   UNL     1      35.427 -20.799 -19.945  0.00  0.00    -0.020 C 
ATOM     17  C   UNL     1      36.502 -20.017 -20.338  0.00  0.00    -0.004 C 
ATOM     18  C   UNL     1      34.128 -20.463 -20.294  0.00  0.00    -0.004 C 
ATOM     19  C   UNL     1      36.272 -18.870 -21.098  0.00  0.00    -0.000 C 
ATOM     20  C   UNL     1      33.898 -19.316 -21.054  0.00  0.00    -0.000 C 
ATOM     21  C   UNL     1      34.971 -18.520 -21.456  0.00  0.00    -0.000 C 
ENDBRANCH  15  16
ENDBRANCH  14  15
ENDBRANCH  11  14
ENDBRANCH   9  11
ENDBRANCH   5   9
ENDBRANCH   1   5
BRANCH   1  22
ATOM     22  C   UNL     1      34.537 -23.447 -13.735  0.00  0.00    +0.104 C 
BRANCH  22  23
ATOM     23  C   UNL     1      35.285 -24.483 -12.887  0.00  0.00    +0.131 C 
BRANCH  23  24
ATOM     24  C   UNL     1      36.337 -25.246 -13.678  0.00  0.00    -0.012 C 
ATOM     25  C   UNL     1      37.670 -25.057 -13.373  0.00  0.00    -0.010 C 
ATOM     26  C   UNL     1      35.928 -26.105 -14.678  0.00  0.00    -0.004 C 
ATOM     27  C   UNL     1      38.634 -25.756 -14.099  0.00  0.00    -0.045 C 
ATOM     28  C   UNL     1      36.892 -26.804 -15.404  0.00  0.00    -0.001 C 
ATOM     29  C   UNL     1      38.245 -26.630 -15.115  0.00  0.00    -0.006 C 
BRANCH  27  30
ATOM     30  C   UNL     1      40.082 -25.568 -13.792  0.00  0.00    -0.059 C 
BRANCH  30  31
ATOM     31  N   UNL     1      40.883 -26.743 -14.137  0.00  0.00    +0.383 N 
ATOM     32  H   UNL     1      41.730 -26.448 -14.621  0.00  0.00    -0.089 HD
ATOM     33  H   UNL     1      40.340 -27.359 -14.743  0.00  0.00    -0.089 HD
ATOM     34  H   UNL     1      41.136 -27.244 -13.283  0.00  0.00    -0.089 HD
ENDBRANCH  30  31
ENDBRANCH  27  30
ENDBRANCH  23  24
BRANCH  23  36
ATOM     35  O   UNL     1      36.543 -22.790 -11.650  0.00  0.00    -0.250 OA
ATOM     36  C   UNL     1      35.882 -23.821 -11.653  0.00  0.00    +0.318 C 
BRANCH  36  37
ATOM     37  O   UNL     1      35.599 -24.510 -10.515  0.00  0.00    -0.480 OA
ATOM     38  H   UNL     1      35.875 -24.176  -9.685  0.00  0.00    +0.295 HD
ENDBRANCH  36  37
ENDBRANCH  23  36
ENDBRANCH  22  23
ENDBRANCH   1  22
TORSDOF 15
ENDMDL
MODEL 9
REMARK VINA RESULT:      -8.7      2.637      9.614
REMARK  Name = 23653507
REMARK  15 active torsions:
REMARK  status: ('A' for Active; 'I' for Inactive)
REMARK    1  A    between atoms: P_1  and  O_3
REMARK    2  A    between atoms: P_1  and  C_5
REMARK    3  A    between atoms: P_1  and  C_22
REMARK    4  A    between atoms: C_5  and  C_6
REMARK    5  A    between atoms: C_5  and  N_9
REMARK    6  A    between atoms: N_9  and  S_11
REMARK    7  A    between atoms: S_11  and  C_14
REMARK    8  A    between atoms: C_14  and  C_15
REMARK    9  A    between atoms: C_15  and  C_16
REMARK   10  A    between atoms: C_22  and  C_23
REMARK   11  A    between atoms: C_23  and  C_24
REMARK   12  A    between atoms: C_23  and  C_36
REMARK   13  A    between atoms: C_27  and  C_30
REMARK   14  A    between atoms: C_30  and  N_31
REMARK   15  A    between atoms: C_36  and  O_37
REMARK                            x       y       z     vdW  Elec       q    Type
REMARK                         _______ _______ _______ _____ _____    ______ ____
ROOT
ATOM      1  P   UNL     1      32.610 -13.432 -23.308  0.00  0.00    +0.236 P 
ATOM      2  O   UNL     1      31.415 -12.716 -22.750  0.00  0.00    -0.288 OA
ENDROOT
BRANCH   1   3
ATOM      3  O   UNL     1      32.365 -14.068 -24.775  0.00  0.00    -0.342 OA
ATOM      4  H   UNL     1      32.917 -13.603 -25.424  0.00  0.00    +0.218 HD
ENDBRANCH   1   3
BRANCH   1   5
ATOM      5  C   UNL     1      33.208 -14.808 -22.328  0.00  0.00    +0.152 C 
BRANCH   5   6
ATOM      6  C   UNL     1      33.332 -14.610 -20.803  0.00  0.00    +0.025 C 
ATOM      7  C   UNL     1      32.238 -15.316 -20.000  0.00  0.00    +0.002 C 
ATOM      8  C   UNL     1      34.708 -15.032 -20.284  0.00  0.00    +0.002 C 
ENDBRANCH   5   6
BRANCH   5   9
ATOM      9  N   UNL     1      34.550 -15.130 -22.873  0.00  0.00    -0.175 NA
ATOM     10  H   UNL     1      34.772 -14.396 -23.545  0.00  0.00    +0.149 HD
BRANCH   9  11
ATOM     11  S   UNL     1      34.860 -16.604 -23.654  0.00  0.00    +0.042 S 
ATOM     12  O   UNL     1      36.290 -16.814 -23.773  0.00  0.00    -0.157 OA
ATOM     13  O   UNL     1      33.997 -16.700 -24.816  0.00  0.00    -0.157 OA
BRANCH  11  14
ATOM     14  C   UNL     1      34.241 -17.757 -22.451  0.00  0.00    +0.173 C 
BRANCH  14  15
ATOM     15  C   UNL     1      35.301 -18.747 -21.984  0.00  0.00    +0.053 C 
BRANCH  15  16
ATOM     16  C   UNL     1      34.779 -19.776 -21.012  0.00  0.00    -0.020 C 
ATOM     17  C   UNL     1      33.415 -19.862 -20.779  0.00  0.00    -0.004 C 
ATOM     18  C   UNL     1      35.672 -20.620 -20.370  0.00  0.00    -0.004 C 
ATOM     19  C   UNL     1      32.932 -20.814 -19.880  0.00  0.00    -0.000 C 
ATOM     20  C   UNL     1      35.190 -21.572 -19.472  0.00  0.00    -0.000 C 
ATOM     21  C   UNL     1      33.819 -21.668 -19.227  0.00  0.00    -0.000 C 
ENDBRANCH  15  16
ENDBRANCH  14  15
ENDBRANCH  11  14
ENDBRANCH   9  11
ENDBRANCH   5   9
ENDBRANCH   1   5
BRANCH   1  22
ATOM     22  C   UNL     1      33.996 -12.349 -23.604  0.00  0.00    +0.104 C 
BRANCH  22  23
ATOM     23  C   UNL     1      33.655 -11.173 -24.527  0.00  0.00    +0.131 C 
BRANCH  23  24
ATOM     24  C   UNL     1      33.783  -9.823 -23.837  0.00  0.00    -0.012 C 
ATOM     25  C   UNL     1      32.908  -9.508 -22.816  0.00  0.00    -0.010 C 
ATOM     26  C   UNL     1      34.770  -8.952 -24.252  0.00  0.00    -0.004 C 
ATOM     27  C   UNL     1      33.025  -8.270 -22.185  0.00  0.00    -0.045 C 
ATOM     28  C   UNL     1      34.887  -7.714 -23.621  0.00  0.00    -0.001 C 
ATOM     29  C   UNL     1      34.015  -7.373 -22.587  0.00  0.00    -0.006 C 
BRANCH  27  30
ATOM     30  C   UNL     1      32.092  -7.904 -21.080  0.00  0.00    -0.059 C 
BRANCH  30  31
ATOM     31  N   UNL     1      32.716  -8.016 -19.762  0.00  0.00    +0.383 N 
ATOM     32  H   UNL     1      33.048  -8.970 -19.622  0.00  0.00    -0.089 HD
ATOM     33  H   UNL     1      32.033  -7.783 -19.041  0.00  0.00    -0.089 HD
ATOM     34  H   UNL     1      33.505  -7.369 -19.704  0.00  0.00    -0.089 HD
ENDBRANCH  30  31
ENDBRANCH  27  30
ENDBRANCH  23  24
BRANCH  23  36
ATOM     35  O   UNL     1      35.502 -10.576 -26.012  0.00  0.00    -0.250 OA
ATOM     36  C   UNL     1      34.495 -11.237 -25.794  0.00  0.00    +0.318 C 
BRANCH  36  37
ATOM     37  O   UNL     1      34.001 -12.132 -26.691  0.00  0.00    -0.480 OA
ATOM     38  H   UNL     1      33.076 -12.213 -26.810  0.00  0.00    +0.295 HD
ENDBRANCH  36  37
ENDBRANCH  23  36
ENDBRANCH  22  23
ENDBRANCH   1  22
TORSDOF 15
ENDMDL
