MODEL 1
REMARK VINA RESULT:     -10.3      0.000      0.000
REMARK  Name = 5327150
REMARK  11 active torsions:
REMARK  status: ('A' for Active; 'I' for Inactive)
REMARK    1  A    between atoms: N_1  and  C_22
REMARK    2  A    between atoms: C_3  and  C_8
REMARK    3  A    between atoms: C_8  and  C_9
REMARK    4  A    between atoms: C_9  and  O_10
REMARK    5  A    between atoms: O_10  and  P_11
REMARK    6  A    between atoms: P_11  and  O_13
REMARK    7  A    between atoms: P_11  and  O_15
REMARK    8  A    between atoms: O_15  and  P_16
REMARK    9  A    between atoms: P_16  and  O_18
REMARK   10  A    between atoms: P_16  and  O_20
REMARK   11  A    between atoms: C_22  and  C_26
REMARK                            x       y       z     vdW  Elec       q    Type
REMARK                         _______ _______ _______ _____ _____    ______ ____
ROOT
ATOM      1  N   UNL     1      35.530 -22.197 -18.278  0.00  0.00    -0.301 N 
ATOM      2  C   UNL     1      34.768 -22.746 -17.322  0.00  0.00    +0.092 C 
ATOM      3  C   UNL     1      35.225 -22.772 -16.023  0.00  0.00    -0.024 C 
ATOM      4  C   UNL     1      36.460 -22.234 -15.710  0.00  0.00    -0.006 C 
ATOM      5  C   UNL     1      36.732 -21.664 -18.018  0.00  0.00    +0.062 C 
ATOM      6  C   UNL     1      33.442 -23.318 -17.699  0.00  0.00    +0.026 C 
ATOM      7  C   UNL     1      37.231 -21.669 -16.723  0.00  0.00    +0.015 C 
ENDROOT
BRANCH   3   8
ATOM      8  C   UNL     1      34.395 -23.382 -14.920  0.00  0.00    +0.056 C 
BRANCH   8   9
ATOM      9  C   UNL     1      35.000 -24.676 -14.387  0.00  0.00    +0.158 C 
BRANCH   9  10
ATOM     10  O   UNL     1      35.326 -24.523 -13.016  0.00  0.00    -0.273 OA
BRANCH  10  11
ATOM     11  P   UNL     1      36.786 -24.968 -12.479  0.00  0.00    +0.484 P 
ATOM     12  O   UNL     1      37.149 -24.428 -11.125  0.00  0.00    -0.227 OA
BRANCH  11  13
ATOM     13  O   UNL     1      36.778 -26.582 -12.573  0.00  0.00    -0.302 OA
ATOM     14  H   UNL     1      36.846 -26.958 -11.681  0.00  0.00    +0.222 HD
ENDBRANCH  11  13
BRANCH  11  15
ATOM     15  O   UNL     1      37.803 -24.534 -13.658  0.00  0.00    -0.186 OA
BRANCH  15  16
ATOM     16  P   UNL     1      38.879 -25.396 -14.502  0.00  0.00    +0.481 P 
ATOM     17  O   UNL     1      39.869 -26.152 -13.666  0.00  0.00    -0.227 OA
BRANCH  16  18
ATOM     18  O   UNL     1      37.955 -26.303 -15.469  0.00  0.00    -0.302 OA
ATOM     19  H   UNL     1      38.276 -27.218 -15.457  0.00  0.00    +0.222 HD
ENDBRANCH  16  18
BRANCH  16  20
ATOM     20  O   UNL     1      39.518 -24.303 -15.506  0.00  0.00    -0.302 OA
ATOM     21  H   UNL     1      39.776 -24.736 -16.335  0.00  0.00    +0.222 HD
ENDBRANCH  16  20
ENDBRANCH  15  16
ENDBRANCH  11  15
ENDBRANCH  10  11
ENDBRANCH   9  10
ENDBRANCH   8   9
ENDBRANCH   3   8
BRANCH   1  22
ATOM     22  C   UNL     1      35.057 -22.163 -19.662  0.00  0.00    +0.123 C 
BRANCH  22  26
ATOM     23  N   UNL     1      33.758 -18.848 -20.928  0.00  0.00    -0.340 NA
ATOM     24  N   UNL     1      36.166 -18.781 -20.862  0.00  0.00    -0.186 NA
ATOM     25  N   UNL     1      32.597 -20.803 -20.255  0.00  0.00    -0.332 N 
ATOM     26  C   UNL     1      34.996 -20.753 -20.183  0.00  0.00    +0.062 C 
ATOM     27  C   UNL     1      33.817 -20.112 -20.462  0.00  0.00    +0.187 C 
ATOM     28  C   UNL     1      36.151 -20.049 -20.397  0.00  0.00    +0.111 C 
ATOM     29  C   UNL     1      34.952 -18.250 -21.103  0.00  0.00    +0.066 C 
ATOM     30  C   UNL     1      34.927 -16.851 -21.618  0.00  0.00    +0.129 C 
ATOM     31  H   UNL     1      31.741 -20.359 -20.450  0.00  0.00    +0.145 HD
ATOM     32  H   UNL     1      32.607 -21.727 -19.915  0.00  0.00    +0.145 HD
ENDBRANCH  22  26
ENDBRANCH   1  22
TORSDOF 11
ENDMDL
MODEL 2
REMARK VINA RESULT:     -10.2      2.285      4.008
REMARK  Name = 5327150
REMARK  11 active torsions:
REMARK  status: ('A' for Active; 'I' for Inactive)
REMARK    1  A    between atoms: N_1  and  C_22
REMARK    2  A    between atoms: C_3  and  C_8
REMARK    3  A    between atoms: C_8  and  C_9
REMARK    4  A    between atoms: C_9  and  O_10
REMARK    5  A    between atoms: O_10  and  P_11
REMARK    6  A    between atoms: P_11  and  O_13
REMARK    7  A    between atoms: P_11  and  O_15
REMARK    8  A    between atoms: O_15  and  P_16
REMARK    9  A    between atoms: P_16  and  O_18
REMARK   10  A    between atoms: P_16  and  O_20
REMARK   11  A    between atoms: C_22  and  C_26
REMARK                            x       y       z     vdW  Elec       q    Type
REMARK                         _______ _______ _______ _____ _____    ______ ____
ROOT
ATOM      1  N   UNL     1      34.954 -19.559 -20.826  0.00  0.00    -0.301 N 
ATOM      2  C   UNL     1      35.359 -20.636 -20.140  0.00  0.00    +0.092 C 
ATOM      3  C   UNL     1      34.420 -21.475 -19.579  0.00  0.00    -0.024 C 
ATOM      4  C   UNL     1      33.072 -21.203 -19.726  0.00  0.00    -0.006 C 
ATOM      5  C   UNL     1      33.658 -19.260 -20.992  0.00  0.00    +0.062 C 
ATOM      6  C   UNL     1      36.822 -20.895 -20.002  0.00  0.00    +0.026 C 
ATOM      7  C   UNL     1      32.680 -20.077 -20.445  0.00  0.00    +0.015 C 
ENDROOT
BRANCH   3   8
ATOM      8  C   UNL     1      34.838 -22.697 -18.800  0.00  0.00    +0.056 C 
BRANCH   8   9
ATOM      9  C   UNL     1      34.945 -22.423 -17.304  0.00  0.00    +0.158 C 
BRANCH   9  10
ATOM     10  O   UNL     1      36.234 -22.785 -16.841  0.00  0.00    -0.273 OA
BRANCH  10  11
ATOM     11  P   UNL     1      36.426 -23.338 -15.333  0.00  0.00    +0.484 P 
ATOM     12  O   UNL     1      37.730 -22.966 -14.688  0.00  0.00    -0.227 OA
BRANCH  11  13
ATOM     13  O   UNL     1      35.117 -22.815 -14.541  0.00  0.00    -0.302 OA
ATOM     14  H   UNL     1      34.345 -22.858 -15.127  0.00  0.00    +0.222 HD
ENDBRANCH  11  13
BRANCH  11  15
ATOM     15  O   UNL     1      36.176 -24.931 -15.449  0.00  0.00    -0.186 OA
BRANCH  15  16
ATOM     16  P   UNL     1      37.130 -26.184 -15.084  0.00  0.00    +0.481 P 
ATOM     17  O   UNL     1      37.014 -26.668 -13.669  0.00  0.00    -0.227 OA
BRANCH  16  18
ATOM     18  O   UNL     1      36.765 -27.275 -16.220  0.00  0.00    -0.302 OA
ATOM     19  H   UNL     1      36.562 -26.819 -17.051  0.00  0.00    +0.222 HD
ENDBRANCH  16  18
BRANCH  16  20
ATOM     20  O   UNL     1      38.598 -25.665 -15.516  0.00  0.00    -0.302 OA
ATOM     21  H   UNL     1      38.797 -25.968 -16.416  0.00  0.00    +0.222 HD
ENDBRANCH  16  20
ENDBRANCH  15  16
ENDBRANCH  11  15
ENDBRANCH  10  11
ENDBRANCH   9  10
ENDBRANCH   8   9
ENDBRANCH   3   8
BRANCH   1  22
ATOM     22  C   UNL     1      35.941 -18.661 -21.427  0.00  0.00    +0.123 C 
BRANCH  22  26
ATOM     23  N   UNL     1      34.303 -15.865 -23.370  0.00  0.00    -0.340 NA
ATOM     24  N   UNL     1      34.733 -17.714 -24.854  0.00  0.00    -0.186 NA
ATOM     25  N   UNL     1      34.902 -16.006 -21.080  0.00  0.00    -0.332 N 
ATOM     26  C   UNL     1      35.337 -17.857 -22.545  0.00  0.00    +0.062 C 
ATOM     27  C   UNL     1      34.844 -16.589 -22.370  0.00  0.00    +0.187 C 
ATOM     28  C   UNL     1      35.261 -18.382 -23.808  0.00  0.00    +0.111 C 
ATOM     29  C   UNL     1      34.279 -16.478 -24.568  0.00  0.00    +0.066 C 
ATOM     30  C   UNL     1      33.687 -15.707 -25.700  0.00  0.00    +0.129 C 
ATOM     31  H   UNL     1      34.553 -15.097 -20.935  0.00  0.00    +0.145 HD
ATOM     32  H   UNL     1      35.291 -16.510 -20.329  0.00  0.00    +0.145 HD
ENDBRANCH  22  26
ENDBRANCH   1  22
TORSDOF 11
ENDMDL
MODEL 3
REMARK VINA RESULT:     -10.2      2.583      4.368
REMARK  Name = 5327150
REMARK  11 active torsions:
REMARK  status: ('A' for Active; 'I' for Inactive)
REMARK    1  A    between atoms: N_1  and  C_22
REMARK    2  A    between atoms: C_3  and  C_8
REMARK    3  A    between atoms: C_8  and  C_9
REMARK    4  A    between atoms: C_9  and  O_10
REMARK    5  A    between atoms: O_10  and  P_11
REMARK    6  A    between atoms: P_11  and  O_13
REMARK    7  A    between atoms: P_11  and  O_15
REMARK    8  A    between atoms: O_15  and  P_16
REMARK    9  A    between atoms: P_16  and  O_18
REMARK   10  A    between atoms: P_16  and  O_20
REMARK   11  A    between atoms: C_22  and  C_26
REMARK                            x       y       z     vdW  Elec       q    Type
REMARK                         _______ _______ _______ _____ _____    ______ ____
ROOT
ATOM      1  N   UNL     1      34.985 -19.479 -20.986  0.00  0.00    -0.301 N 
ATOM      2  C   UNL     1      35.400 -20.462 -20.175  0.00  0.00    +0.092 C 
ATOM      3  C   UNL     1      34.471 -21.274 -19.564  0.00  0.00    -0.024 C 
ATOM      4  C   UNL     1      33.121 -21.074 -19.787  0.00  0.00    -0.006 C 
ATOM      5  C   UNL     1      33.687 -19.251 -21.229  0.00  0.00    +0.062 C 
ATOM      6  C   UNL     1      36.866 -20.647 -19.959  0.00  0.00    +0.026 C 
ATOM      7  C   UNL     1      32.717 -20.045 -20.634  0.00  0.00    +0.015 C 
ENDROOT
BRANCH   3   8
ATOM      8  C   UNL     1      34.901 -22.392 -18.645  0.00  0.00    +0.056 C 
BRANCH   8   9
ATOM      9  C   UNL     1      33.739 -22.957 -17.836  0.00  0.00    +0.158 C 
BRANCH   9  10
ATOM     10  O   UNL     1      34.226 -23.890 -16.886  0.00  0.00    -0.273 OA
BRANCH  10  11
ATOM     11  P   UNL     1      34.098 -23.574 -15.304  0.00  0.00    +0.484 P 
ATOM     12  O   UNL     1      32.816 -22.905 -14.898  0.00  0.00    -0.227 OA
BRANCH  11  13
ATOM     13  O   UNL     1      34.363 -24.998 -14.585  0.00  0.00    -0.302 OA
ATOM     14  H   UNL     1      33.565 -25.545 -14.647  0.00  0.00    +0.222 HD
ENDBRANCH  11  13
BRANCH  11  15
ATOM     15  O   UNL     1      35.428 -22.726 -14.950  0.00  0.00    -0.186 OA
BRANCH  15  16
ATOM     16  P   UNL     1      36.983 -23.001 -15.293  0.00  0.00    +0.481 P 
ATOM     17  O   UNL     1      37.574 -22.069 -16.308  0.00  0.00    -0.227 OA
BRANCH  16  18
ATOM     18  O   UNL     1      37.695 -22.983 -13.841  0.00  0.00    -0.302 OA
ATOM     19  H   UNL     1      38.076 -23.855 -13.658  0.00  0.00    +0.222 HD
ENDBRANCH  16  18
BRANCH  16  20
ATOM     20  O   UNL     1      36.997 -24.564 -15.701  0.00  0.00    -0.302 OA
ATOM     21  H   UNL     1      37.171 -25.104 -14.914  0.00  0.00    +0.222 HD
ENDBRANCH  16  20
ENDBRANCH  15  16
ENDBRANCH  11  15
ENDBRANCH  10  11
ENDBRANCH   9  10
ENDBRANCH   8   9
ENDBRANCH   3   8
BRANCH   1  22
ATOM     22  C   UNL     1      35.962 -18.610 -21.641  0.00  0.00    +0.123 C 
BRANCH  22  26
ATOM     23  N   UNL     1      34.235 -15.774 -23.445  0.00  0.00    -0.340 NA
ATOM     24  N   UNL     1      34.648 -17.567 -25.002  0.00  0.00    -0.186 NA
ATOM     25  N   UNL     1      34.899 -15.982 -21.178  0.00  0.00    -0.332 N 
ATOM     26  C   UNL     1      35.317 -17.777 -22.715  0.00  0.00    +0.062 C 
ATOM     27  C   UNL     1      34.813 -16.524 -22.485  0.00  0.00    +0.187 C 
ATOM     28  C   UNL     1      35.213 -18.262 -23.993  0.00  0.00    +0.111 C 
ATOM     29  C   UNL     1      34.186 -16.348 -24.662  0.00  0.00    +0.066 C 
ATOM     30  C   UNL     1      33.553 -15.548 -25.751  0.00  0.00    +0.129 C 
ATOM     31  H   UNL     1      34.542 -15.084 -20.994  0.00  0.00    +0.145 HD
ATOM     32  H   UNL     1      35.315 -16.505 -20.455  0.00  0.00    +0.145 HD
ENDBRANCH  22  26
ENDBRANCH   1  22
TORSDOF 11
ENDMDL
MODEL 4
REMARK VINA RESULT:     -10.1      2.314      4.291
REMARK  Name = 5327150
REMARK  11 active torsions:
REMARK  status: ('A' for Active; 'I' for Inactive)
REMARK    1  A    between atoms: N_1  and  C_22
REMARK    2  A    between atoms: C_3  and  C_8
REMARK    3  A    between atoms: C_8  and  C_9
REMARK    4  A    between atoms: C_9  and  O_10
REMARK    5  A    between atoms: O_10  and  P_11
REMARK    6  A    between atoms: P_11  and  O_13
REMARK    7  A    between atoms: P_11  and  O_15
REMARK    8  A    between atoms: O_15  and  P_16
REMARK    9  A    between atoms: P_16  and  O_18
REMARK   10  A    between atoms: P_16  and  O_20
REMARK   11  A    between atoms: C_22  and  C_26
REMARK                            x       y       z     vdW  Elec       q    Type
REMARK                         _______ _______ _______ _____ _____    ______ ____
ROOT
ATOM      1  N   UNL     1      34.930 -19.424 -21.074  0.00  0.00    -0.301 N 
ATOM      2  C   UNL     1      35.402 -20.375 -20.257  0.00  0.00    +0.092 C 
ATOM      3  C   UNL     1      34.520 -21.227 -19.628  0.00  0.00    -0.024 C 
ATOM      4  C   UNL     1      33.160 -21.098 -19.841  0.00  0.00    -0.006 C 
ATOM      5  C   UNL     1      33.621 -19.266 -21.308  0.00  0.00    +0.062 C 
ATOM      6  C   UNL     1      36.877 -20.482 -20.051  0.00  0.00    +0.026 C 
ATOM      7  C   UNL     1      32.698 -20.101 -20.696  0.00  0.00    +0.015 C 
ENDROOT
BRANCH   3   8
ATOM      8  C   UNL     1      35.015 -22.309 -18.700  0.00  0.00    +0.056 C 
BRANCH   8   9
ATOM      9  C   UNL     1      33.937 -22.778 -17.729  0.00  0.00    +0.158 C 
BRANCH   9  10
ATOM     10  O   UNL     1      34.434 -23.845 -16.939  0.00  0.00    -0.273 OA
BRANCH  10  11
ATOM     11  P   UNL     1      35.047 -23.547 -15.472  0.00  0.00    +0.484 P 
ATOM     12  O   UNL     1      36.247 -22.645 -15.464  0.00  0.00    -0.227 OA
BRANCH  11  13
ATOM     13  O   UNL     1      33.793 -22.996 -14.613  0.00  0.00    -0.302 OA
ATOM     14  H   UNL     1      34.004 -23.039 -13.668  0.00  0.00    +0.222 HD
ENDBRANCH  11  13
BRANCH  11  15
ATOM     15  O   UNL     1      35.316 -25.010 -14.839  0.00  0.00    -0.186 OA
BRANCH  15  16
ATOM     16  P   UNL     1      36.569 -26.019 -14.993  0.00  0.00    +0.481 P 
ATOM     17  O   UNL     1      36.384 -27.095 -16.022  0.00  0.00    -0.227 OA
BRANCH  16  18
ATOM     18  O   UNL     1      37.819 -25.026 -15.248  0.00  0.00    -0.302 OA
ATOM     19  H   UNL     1      37.529 -24.277 -15.790  0.00  0.00    +0.222 HD
ENDBRANCH  16  18
BRANCH  16  20
ATOM     20  O   UNL     1      36.804 -26.544 -13.483  0.00  0.00    -0.302 OA
ATOM     21  H   UNL     1      36.263 -27.333 -13.325  0.00  0.00    +0.222 HD
ENDBRANCH  16  20
ENDBRANCH  15  16
ENDBRANCH  11  15
ENDBRANCH  10  11
ENDBRANCH   9  10
ENDBRANCH   8   9
ENDBRANCH   3   8
BRANCH   1  22
ATOM     22  C   UNL     1      35.857 -18.514 -21.748  0.00  0.00    +0.123 C 
BRANCH  22  26
ATOM     23  N   UNL     1      34.344 -15.559 -23.554  0.00  0.00    -0.340 NA
ATOM     24  N   UNL     1      34.285 -15.151 -21.180  0.00  0.00    -0.186 NA
ATOM     25  N   UNL     1      35.259 -17.578 -24.397  0.00  0.00    -0.332 N 
ATOM     26  C   UNL     1      35.208 -17.187 -22.030  0.00  0.00    +0.062 C 
ATOM     27  C   UNL     1      34.926 -16.748 -23.298  0.00  0.00    +0.187 C 
ATOM     28  C   UNL     1      34.869 -16.353 -20.996  0.00  0.00    +0.111 C 
ATOM     29  C   UNL     1      34.054 -14.822 -22.465  0.00  0.00    +0.066 C 
ATOM     30  C   UNL     1      33.409 -13.499 -22.709  0.00  0.00    +0.129 C 
ATOM     31  H   UNL     1      35.065 -17.280 -25.315  0.00  0.00    +0.145 HD
ATOM     32  H   UNL     1      35.685 -18.452 -24.243  0.00  0.00    +0.145 HD
ENDBRANCH  22  26
ENDBRANCH   1  22
TORSDOF 11
ENDMDL
MODEL 5
REMARK VINA RESULT:     -10.0      2.851      5.135
REMARK  Name = 5327150
REMARK  11 active torsions:
REMARK  status: ('A' for Active; 'I' for Inactive)
REMARK    1  A    between atoms: N_1  and  C_22
REMARK    2  A    between atoms: C_3  and  C_8
REMARK    3  A    between atoms: C_8  and  C_9
REMARK    4  A    between atoms: C_9  and  O_10
REMARK    5  A    between atoms: O_10  and  P_11
REMARK    6  A    between atoms: P_11  and  O_13
REMARK    7  A    between atoms: P_11  and  O_15
REMARK    8  A    between atoms: O_15  and  P_16
REMARK    9  A    between atoms: P_16  and  O_18
REMARK   10  A    between atoms: P_16  and  O_20
REMARK   11  A    between atoms: C_22  and  C_26
REMARK                            x       y       z     vdW  Elec       q    Type
REMARK                         _______ _______ _______ _____ _____    ______ ____
ROOT
ATOM      1  N   UNL     1      34.897 -19.237 -20.970  0.00  0.00    -0.301 N 
ATOM      2  C   UNL     1      35.351 -20.332 -20.345  0.00  0.00    +0.092 C 
ATOM      3  C   UNL     1      34.452 -21.228 -19.809  0.00  0.00    -0.024 C 
ATOM      4  C   UNL     1      33.093 -20.997 -19.919  0.00  0.00    -0.006 C 
ATOM      5  C   UNL     1      33.589 -18.975 -21.098  0.00  0.00    +0.062 C 
ATOM      6  C   UNL     1      36.825 -20.546 -20.246  0.00  0.00    +0.026 C 
ATOM      7  C   UNL     1      32.649 -19.851 -20.574  0.00  0.00    +0.015 C 
ENDROOT
BRANCH   3   8
ATOM      8  C   UNL     1      34.926 -22.472 -19.098  0.00  0.00    +0.056 C 
BRANCH   8   9
ATOM      9  C   UNL     1      34.248 -22.660 -17.746  0.00  0.00    +0.158 C 
BRANCH   9  10
ATOM     10  O   UNL     1      35.221 -22.964 -16.760  0.00  0.00    -0.273 OA
BRANCH  10  11
ATOM     11  P   UNL     1      34.794 -23.769 -15.424  0.00  0.00    +0.484 P 
ATOM     12  O   UNL     1      35.248 -25.200 -15.380  0.00  0.00    -0.227 OA
BRANCH  11  13
ATOM     13  O   UNL     1      35.346 -22.857 -14.208  0.00  0.00    -0.302 OA
ATOM     14  H   UNL     1      35.320 -23.367 -13.383  0.00  0.00    +0.222 HD
ENDBRANCH  11  13
BRANCH  11  15
ATOM     15  O   UNL     1      33.191 -23.581 -15.330  0.00  0.00    -0.186 OA
BRANCH  15  16
ATOM     16  P   UNL     1      32.149 -23.927 -14.143  0.00  0.00    +0.481 P 
ATOM     17  O   UNL     1      30.729 -23.534 -14.422  0.00  0.00    -0.227 OA
BRANCH  16  18
ATOM     18  O   UNL     1      32.392 -25.504 -13.883  0.00  0.00    -0.302 OA
ATOM     19  H   UNL     1      32.125 -25.727 -12.978  0.00  0.00    +0.222 HD
ENDBRANCH  16  18
BRANCH  16  20
ATOM     20  O   UNL     1      32.819 -23.224 -12.852  0.00  0.00    -0.302 OA
ATOM     21  H   UNL     1      32.518 -23.672 -12.046  0.00  0.00    +0.222 HD
ENDBRANCH  16  20
ENDBRANCH  15  16
ENDBRANCH  11  15
ENDBRANCH  10  11
ENDBRANCH   9  10
ENDBRANCH   8   9
ENDBRANCH   3   8
BRANCH   1  22
ATOM     22  C   UNL     1      35.842 -18.278 -21.543  0.00  0.00    +0.123 C 
BRANCH  22  26
ATOM     23  N   UNL     1      34.122 -15.549 -23.512  0.00  0.00    -0.340 NA
ATOM     24  N   UNL     1      34.609 -17.397 -24.980  0.00  0.00    -0.186 NA
ATOM     25  N   UNL     1      34.723 -15.652 -21.220  0.00  0.00    -0.332 N 
ATOM     26  C   UNL     1      35.215 -17.502 -22.669  0.00  0.00    +0.062 C 
ATOM     27  C   UNL     1      34.684 -16.248 -22.505  0.00  0.00    +0.187 C 
ATOM     28  C   UNL     1      35.156 -18.040 -23.927  0.00  0.00    +0.111 C 
ATOM     29  C   UNL     1      34.118 -16.173 -24.705  0.00  0.00    +0.066 C 
ATOM     30  C   UNL     1      33.504 -15.430 -25.843  0.00  0.00    +0.129 C 
ATOM     31  H   UNL     1      34.346 -14.753 -21.083  0.00  0.00    +0.145 HD
ATOM     32  H   UNL     1      35.127 -16.137 -20.465  0.00  0.00    +0.145 HD
ENDBRANCH  22  26
ENDBRANCH   1  22
TORSDOF 11
ENDMDL
MODEL 6
REMARK VINA RESULT:      -9.8      0.855      2.245
REMARK  Name = 5327150
REMARK  11 active torsions:
REMARK  status: ('A' for Active; 'I' for Inactive)
REMARK    1  A    between atoms: N_1  and  C_22
REMARK    2  A    between atoms: C_3  and  C_8
REMARK    3  A    between atoms: C_8  and  C_9
REMARK    4  A    between atoms: C_9  and  O_10
REMARK    5  A    between atoms: O_10  and  P_11
REMARK    6  A    between atoms: P_11  and  O_13
REMARK    7  A    between atoms: P_11  and  O_15
REMARK    8  A    between atoms: O_15  and  P_16
REMARK    9  A    between atoms: P_16  and  O_18
REMARK   10  A    between atoms: P_16  and  O_20
REMARK   11  A    between atoms: C_22  and  C_26
REMARK                            x       y       z     vdW  Elec       q    Type
REMARK                         _______ _______ _______ _____ _____    ______ ____
ROOT
ATOM      1  N   UNL     1      35.628 -22.039 -18.511  0.00  0.00    -0.301 N 
ATOM      2  C   UNL     1      34.895 -22.702 -17.605  0.00  0.00    +0.092 C 
ATOM      3  C   UNL     1      35.327 -22.762 -16.298  0.00  0.00    -0.024 C 
ATOM      4  C   UNL     1      36.507 -22.144 -15.928  0.00  0.00    -0.006 C 
ATOM      5  C   UNL     1      36.776 -21.426 -18.194  0.00  0.00    +0.062 C 
ATOM      6  C   UNL     1      33.628 -23.357 -18.044  0.00  0.00    +0.026 C 
ATOM      7  C   UNL     1      37.248 -21.462 -16.890  0.00  0.00    +0.015 C 
ENDROOT
BRANCH   3   8
ATOM      8  C   UNL     1      34.528 -23.499 -15.251  0.00  0.00    +0.056 C 
BRANCH   8   9
ATOM      9  C   UNL     1      34.936 -24.963 -15.134  0.00  0.00    +0.158 C 
BRANCH   9  10
ATOM     10  O   UNL     1      36.322 -25.098 -15.402  0.00  0.00    -0.273 OA
BRANCH  10  11
ATOM     11  P   UNL     1      37.331 -25.567 -14.228  0.00  0.00    +0.484 P 
ATOM     12  O   UNL     1      38.062 -26.850 -14.503  0.00  0.00    -0.227 OA
BRANCH  11  13
ATOM     13  O   UNL     1      38.293 -24.290 -13.987  0.00  0.00    -0.302 OA
ATOM     14  H   UNL     1      38.883 -24.182 -14.750  0.00  0.00    +0.222 HD
ENDBRANCH  11  13
BRANCH  11  15
ATOM     15  O   UNL     1      36.417 -25.599 -12.895  0.00  0.00    -0.186 OA
BRANCH  15  16
ATOM     16  P   UNL     1      36.334 -24.582 -11.641  0.00  0.00    +0.481 P 
ATOM     17  O   UNL     1      35.369 -24.989 -10.567  0.00  0.00    -0.227 OA
BRANCH  16  18
ATOM     18  O   UNL     1      37.875 -24.444 -11.170  0.00  0.00    -0.302 OA
ATOM     19  H   UNL     1      37.907 -24.287 -10.214  0.00  0.00    +0.222 HD
ENDBRANCH  16  18
BRANCH  16  20
ATOM     20  O   UNL     1      36.025 -23.160 -12.343  0.00  0.00    -0.302 OA
ATOM     21  H   UNL     1      35.491 -22.613 -11.746  0.00  0.00    +0.222 HD
ENDBRANCH  16  20
ENDBRANCH  15  16
ENDBRANCH  11  15
ENDBRANCH  10  11
ENDBRANCH   9  10
ENDBRANCH   8   9
ENDBRANCH   3   8
BRANCH   1  22
ATOM     22  C   UNL     1      35.180 -21.967 -19.902  0.00  0.00    +0.123 C 
BRANCH  22  26
ATOM     23  N   UNL     1      33.721 -18.650 -20.975  0.00  0.00    -0.340 NA
ATOM     24  N   UNL     1      36.126 -18.502 -21.000  0.00  0.00    -0.186 NA
ATOM     25  N   UNL     1      32.654 -20.671 -20.340  0.00  0.00    -0.332 N 
ATOM     26  C   UNL     1      35.051 -20.540 -20.360  0.00  0.00    +0.062 C 
ATOM     27  C   UNL     1      33.841 -19.930 -20.565  0.00  0.00    +0.187 C 
ATOM     28  C   UNL     1      36.172 -19.787 -20.590  0.00  0.00    +0.111 C 
ATOM     29  C   UNL     1      34.886 -18.004 -21.170  0.00  0.00    +0.066 C 
ATOM     30  C   UNL     1      34.794 -16.586 -21.624  0.00  0.00    +0.129 C 
ATOM     31  H   UNL     1      31.777 -20.250 -20.482  0.00  0.00    +0.145 HD
ATOM     32  H   UNL     1      32.709 -21.607 -20.040  0.00  0.00    +0.145 HD
ENDBRANCH  22  26
ENDBRANCH   1  22
TORSDOF 11
ENDMDL
MODEL 7
REMARK VINA RESULT:      -9.6      1.348      3.194
REMARK  Name = 5327150
REMARK  11 active torsions:
REMARK  status: ('A' for Active; 'I' for Inactive)
REMARK    1  A    between atoms: N_1  and  C_22
REMARK    2  A    between atoms: C_3  and  C_8
REMARK    3  A    between atoms: C_8  and  C_9
REMARK    4  A    between atoms: C_9  and  O_10
REMARK    5  A    between atoms: O_10  and  P_11
REMARK    6  A    between atoms: P_11  and  O_13
REMARK    7  A    between atoms: P_11  and  O_15
REMARK    8  A    between atoms: O_15  and  P_16
REMARK    9  A    between atoms: P_16  and  O_18
REMARK   10  A    between atoms: P_16  and  O_20
REMARK   11  A    between atoms: C_22  and  C_26
REMARK                            x       y       z     vdW  Elec       q    Type
REMARK                         _______ _______ _______ _____ _____    ______ ____
ROOT
ATOM      1  N   UNL     1      35.123 -22.192 -18.963  0.00  0.00    -0.301 N 
ATOM      2  C   UNL     1      35.774 -22.139 -17.793  0.00  0.00    +0.092 C 
ATOM      3  C   UNL     1      35.170 -22.637 -16.659  0.00  0.00    -0.024 C 
ATOM      4  C   UNL     1      33.904 -23.186 -16.732  0.00  0.00    -0.006 C 
ATOM      5  C   UNL     1      33.896 -22.716 -19.077  0.00  0.00    +0.062 C 
ATOM      6  C   UNL     1      37.140 -21.537 -17.754  0.00  0.00    +0.026 C 
ATOM      7  C   UNL     1      33.251 -23.229 -17.961  0.00  0.00    +0.015 C 
ENDROOT
BRANCH   3   8
ATOM      8  C   UNL     1      35.872 -22.594 -15.324  0.00  0.00    +0.056 C 
BRANCH   8   9
ATOM      9  C   UNL     1      36.837 -23.760 -15.139  0.00  0.00    +0.158 C 
BRANCH   9  10
ATOM     10  O   UNL     1      36.294 -24.691 -14.219  0.00  0.00    -0.273 OA
BRANCH  10  11
ATOM     11  P   UNL     1      37.274 -25.522 -13.235  0.00  0.00    +0.484 P 
ATOM     12  O   UNL     1      37.593 -26.914 -13.696  0.00  0.00    -0.227 OA
BRANCH  11  13
ATOM     13  O   UNL     1      38.566 -24.567 -13.051  0.00  0.00    -0.302 OA
ATOM     14  H   UNL     1      38.569 -24.197 -12.154  0.00  0.00    +0.222 HD
ENDBRANCH  11  13
BRANCH  11  15
ATOM     15  O   UNL     1      36.553 -25.452 -11.789  0.00  0.00    -0.186 OA
BRANCH  15  16
ATOM     16  P   UNL     1      35.918 -24.205 -10.980  0.00  0.00    +0.481 P 
ATOM     17  O   UNL     1      35.359 -24.553  -9.632  0.00  0.00    -0.227 OA
BRANCH  16  18
ATOM     18  O   UNL     1      37.114 -23.117 -10.973  0.00  0.00    -0.302 OA
ATOM     19  H   UNL     1      36.827 -22.320 -11.444  0.00  0.00    +0.222 HD
ENDBRANCH  16  18
BRANCH  16  20
ATOM     20  O   UNL     1      34.854 -23.591 -12.029  0.00  0.00    -0.302 OA
ATOM     21  H   UNL     1      34.951 -22.626 -12.061  0.00  0.00    +0.222 HD
ENDBRANCH  16  20
ENDBRANCH  15  16
ENDBRANCH  11  15
ENDBRANCH  10  11
ENDBRANCH   9  10
ENDBRANCH   8   9
ENDBRANCH   3   8
BRANCH   1  22
ATOM     22  C   UNL     1      35.754 -21.667 -20.175  0.00  0.00    +0.123 C 
BRANCH  22  26
ATOM     23  N   UNL     1      35.624 -17.983 -21.008  0.00  0.00    -0.340 NA
ATOM     24  N   UNL     1      33.378 -18.846 -20.883  0.00  0.00    -0.186 NA
ATOM     25  N   UNL     1      37.477 -19.414 -20.629  0.00  0.00    -0.332 N 
ATOM     26  C   UNL     1      35.246 -20.289 -20.500  0.00  0.00    +0.062 C 
ATOM     27  C   UNL     1      36.076 -19.220 -20.715  0.00  0.00    +0.187 C 
ATOM     28  C   UNL     1      33.899 -20.057 -20.594  0.00  0.00    +0.111 C 
ATOM     29  C   UNL     1      34.284 -17.869 -21.075  0.00  0.00    +0.066 C 
ATOM     30  C   UNL     1      33.747 -16.515 -21.396  0.00  0.00    +0.129 C 
ATOM     31  H   UNL     1      38.089 -18.658 -20.780  0.00  0.00    +0.145 HD
ATOM     32  H   UNL     1      37.838 -20.305 -20.417  0.00  0.00    +0.145 HD
ENDBRANCH  22  26
ENDBRANCH   1  22
TORSDOF 11
ENDMDL
MODEL 8
REMARK VINA RESULT:      -9.5      0.961      2.114
REMARK  Name = 5327150
REMARK  11 active torsions:
REMARK  status: ('A' for Active; 'I' for Inactive)
REMARK    1  A    between atoms: N_1  and  C_22
REMARK    2  A    between atoms: C_3  and  C_8
REMARK    3  A    between atoms: C_8  and  C_9
REMARK    4  A    between atoms: C_9  and  O_10
REMARK    5  A    between atoms: O_10  and  P_11
REMARK    6  A    between atoms: P_11  and  O_13
REMARK    7  A    between atoms: P_11  and  O_15
REMARK    8  A    between atoms: O_15  and  P_16
REMARK    9  A    between atoms: P_16  and  O_18
REMARK   10  A    between atoms: P_16  and  O_20
REMARK   11  A    between atoms: C_22  and  C_26
REMARK                            x       y       z     vdW  Elec       q    Type
REMARK                         _______ _______ _______ _____ _____    ______ ____
ROOT
ATOM      1  N   UNL     1      34.934 -22.350 -18.660  0.00  0.00    -0.301 N 
ATOM      2  C   UNL     1      35.638 -22.321 -17.520  0.00  0.00    +0.092 C 
ATOM      3  C   UNL     1      35.043 -22.724 -16.345  0.00  0.00    -0.024 C 
ATOM      4  C   UNL     1      33.729 -23.156 -16.346  0.00  0.00    -0.006 C 
ATOM      5  C   UNL     1      33.659 -22.761 -18.704  0.00  0.00    +0.062 C 
ATOM      6  C   UNL     1      37.053 -21.847 -17.560  0.00  0.00    +0.026 C 
ATOM      7  C   UNL     1      33.021 -23.176 -17.545  0.00  0.00    +0.015 C 
ENDROOT
BRANCH   3   8
ATOM      8  C   UNL     1      35.804 -22.705 -15.043  0.00  0.00    +0.056 C 
BRANCH   8   9
ATOM      9  C   UNL     1      35.422 -23.865 -14.130  0.00  0.00    +0.158 C 
BRANCH   9  10
ATOM     10  O   UNL     1      36.514 -24.761 -14.011  0.00  0.00    -0.273 OA
BRANCH  10  11
ATOM     11  P   UNL     1      37.432 -24.744 -12.679  0.00  0.00    +0.484 P 
ATOM     12  O   UNL     1      37.445 -23.437 -11.942  0.00  0.00    -0.227 OA
BRANCH  11  13
ATOM     13  O   UNL     1      36.901 -25.997 -11.806  0.00  0.00    -0.302 OA
ATOM     14  H   UNL     1      36.684 -26.735 -12.398  0.00  0.00    +0.222 HD
ENDBRANCH  11  13
BRANCH  11  15
ATOM     15  O   UNL     1      38.888 -25.235 -13.184  0.00  0.00    -0.186 OA
BRANCH  15  16
ATOM     16  P   UNL     1      39.486 -25.424 -14.673  0.00  0.00    +0.481 P 
ATOM     17  O   UNL     1      40.945 -25.771 -14.722  0.00  0.00    -0.227 OA
BRANCH  16  18
ATOM     18  O   UNL     1      38.493 -26.512 -15.339  0.00  0.00    -0.302 OA
ATOM     19  H   UNL     1      38.596 -27.363 -14.885  0.00  0.00    +0.222 HD
ENDBRANCH  16  18
BRANCH  16  20
ATOM     20  O   UNL     1      39.082 -24.043 -15.408  0.00  0.00    -0.302 OA
ATOM     21  H   UNL     1      38.115 -23.961 -15.434  0.00  0.00    +0.222 HD
ENDBRANCH  16  20
ENDBRANCH  15  16
ENDBRANCH  11  15
ENDBRANCH  10  11
ENDBRANCH   9  10
ENDBRANCH   8   9
ENDBRANCH   3   8
BRANCH   1  22
ATOM     22  C   UNL     1      35.555 -21.924 -19.914  0.00  0.00    +0.123 C 
BRANCH  22  26
ATOM     23  N   UNL     1      35.560 -18.277 -20.903  0.00  0.00    -0.340 NA
ATOM     24  N   UNL     1      33.285 -19.064 -20.795  0.00  0.00    -0.186 NA
ATOM     25  N   UNL     1      37.358 -19.746 -20.421  0.00  0.00    -0.332 N 
ATOM     26  C   UNL     1      35.098 -20.546 -20.308  0.00  0.00    +0.062 C 
ATOM     27  C   UNL     1      35.966 -19.513 -20.549  0.00  0.00    +0.187 C 
ATOM     28  C   UNL     1      33.761 -20.277 -20.443  0.00  0.00    +0.111 C 
ATOM     29  C   UNL     1      34.226 -18.124 -21.007  0.00  0.00    +0.066 C 
ATOM     30  C   UNL     1      33.739 -16.769 -21.396  0.00  0.00    +0.129 C 
ATOM     31  H   UNL     1      37.996 -19.017 -20.590  0.00  0.00    +0.145 HD
ATOM     32  H   UNL     1      37.686 -20.638 -20.164  0.00  0.00    +0.145 HD
ENDBRANCH  22  26
ENDBRANCH   1  22
TORSDOF 11
ENDMDL
MODEL 9
REMARK VINA RESULT:      -9.4      4.126      5.325
REMARK  Name = 5327150
REMARK  11 active torsions:
REMARK  status: ('A' for Active; 'I' for Inactive)
REMARK    1  A    between atoms: N_1  and  C_22
REMARK    2  A    between atoms: C_3  and  C_8
REMARK    3  A    between atoms: C_8  and  C_9
REMARK    4  A    between atoms: C_9  and  O_10
REMARK    5  A    between atoms: O_10  and  P_11
REMARK    6  A    between atoms: P_11  and  O_13
REMARK    7  A    between atoms: P_11  and  O_15
REMARK    8  A    between atoms: O_15  and  P_16
REMARK    9  A    between atoms: P_16  and  O_18
REMARK   10  A    between atoms: P_16  and  O_20
REMARK   11  A    between atoms: C_22  and  C_26
REMARK                            x       y       z     vdW  Elec       q    Type
REMARK                         _______ _______ _______ _____ _____    ______ ____
ROOT
ATOM      1  N   UNL     1      35.475 -22.230 -18.408  0.00  0.00    -0.301 N 
ATOM      2  C   UNL     1      34.644 -22.897 -17.594  0.00  0.00    +0.092 C 
ATOM      3  C   UNL     1      34.938 -22.985 -16.251  0.00  0.00    -0.024 C 
ATOM      4  C   UNL     1      36.081 -22.389 -15.750  0.00  0.00    -0.006 C 
ATOM      5  C   UNL     1      36.592 -21.639 -17.963  0.00  0.00    +0.062 C 
ATOM      6  C   UNL     1      33.421 -23.527 -18.172  0.00  0.00    +0.026 C 
ATOM      7  C   UNL     1      36.926 -21.702 -16.618  0.00  0.00    +0.015 C 
ENDROOT
BRANCH   3   8
ATOM      8  C   UNL     1      34.027 -23.726 -15.304  0.00  0.00    +0.056 C 
BRANCH   8   9
ATOM      9  C   UNL     1      32.805 -22.904 -14.911  0.00  0.00    +0.158 C 
BRANCH   9  10
ATOM     10  O   UNL     1      31.647 -23.442 -15.524  0.00  0.00    -0.273 OA
BRANCH  10  11
ATOM     11  P   UNL     1      30.542 -24.215 -14.629  0.00  0.00    +0.484 P 
ATOM     12  O   UNL     1      30.521 -25.705 -14.805  0.00  0.00    -0.227 OA
BRANCH  11  13
ATOM     13  O   UNL     1      30.836 -23.727 -13.115  0.00  0.00    -0.302 OA
ATOM     14  H   UNL     1      31.360 -24.401 -12.654  0.00  0.00    +0.222 HD
ENDBRANCH  11  13
BRANCH  11  15
ATOM     15  O   UNL     1      29.145 -23.485 -14.988  0.00  0.00    -0.186 OA
BRANCH  15  16
ATOM     16  P   UNL     1      28.480 -23.112 -16.413  0.00  0.00    +0.481 P 
ATOM     17  O   UNL     1      27.951 -24.285 -17.184  0.00  0.00    -0.227 OA
BRANCH  16  18
ATOM     18  O   UNL     1      27.385 -21.986 -16.031  0.00  0.00    -0.302 OA
ATOM     19  H   UNL     1      27.719 -21.112 -16.286  0.00  0.00    +0.222 HD
ENDBRANCH  16  18
BRANCH  16  20
ATOM     20  O   UNL     1      29.645 -22.271 -17.152  0.00  0.00    -0.302 OA
ATOM     21  H   UNL     1      30.506 -22.508 -16.774  0.00  0.00    +0.222 HD
ENDBRANCH  16  20
ENDBRANCH  15  16
ENDBRANCH  11  15
ENDBRANCH  10  11
ENDBRANCH   9  10
ENDBRANCH   8   9
ENDBRANCH   3   8
BRANCH   1  22
ATOM     22  C   UNL     1      35.174 -22.129 -19.836  0.00  0.00    +0.123 C 
BRANCH  22  26
ATOM     23  N   UNL     1      33.757 -18.789 -20.890  0.00  0.00    -0.340 NA
ATOM     24  N   UNL     1      36.161 -18.645 -20.832  0.00  0.00    -0.186 NA
ATOM     25  N   UNL     1      32.666 -20.819 -20.332  0.00  0.00    -0.332 N 
ATOM     26  C   UNL     1      35.062 -20.693 -20.269  0.00  0.00    +0.062 C 
ATOM     27  C   UNL     1      33.860 -20.076 -20.503  0.00  0.00    +0.187 C 
ATOM     28  C   UNL     1      36.192 -19.938 -20.446  0.00  0.00    +0.111 C 
ATOM     29  C   UNL     1      34.929 -18.141 -21.034  0.00  0.00    +0.066 C 
ATOM     30  C   UNL     1      34.853 -16.715 -21.462  0.00  0.00    +0.129 C 
ATOM     31  H   UNL     1      31.794 -20.393 -20.495  0.00  0.00    +0.145 HD
ATOM     32  H   UNL     1      32.709 -21.761 -20.049  0.00  0.00    +0.145 HD
ENDBRANCH  22  26
ENDBRANCH   1  22
TORSDOF 11
ENDMDL
