MODEL 1
REMARK VINA RESULT:      -8.9      0.000      0.000
REMARK  Name = 5288660
REMARK  8 active torsions:
REMARK  status: ('A' for Active; 'I' for Inactive)
REMARK    1  A    between atoms: CA_1  and  C_4
REMARK    2  A    between atoms: CA_1  and  N_15
REMARK    3  A    between atoms: CA_1  and  C_25
REMARK    4  A    between atoms: CA_7  and  C_11
REMARK    5  A    between atoms: C_11  and  O_12
REMARK    6  A    between atoms: C_16  and  C_18
REMARK    7  A    between atoms: C_18  and  C_20
REMARK    8  A    between atoms: C_25  and  O_26
REMARK                            x       y       z     vdW  Elec       q    Type
REMARK                         _______ _______ _______ _____ _____    ______ ____
ROOT
ATOM      1  CA  UNL     1      34.507 -15.825 -22.433  0.00  0.00    +0.200 C 
ENDROOT
BRANCH   1   4
ATOM      2  S   UNL     1      34.069 -16.072 -25.120  0.00  0.00    -0.115 S 
ATOM      3  N   UNL     1      33.889 -13.814 -23.654  0.00  0.00    -0.319 N 
ATOM      4  C   UNL     1      33.656 -15.242 -23.553  0.00  0.00    +0.148 C 
ATOM      5  C   UNL     1      33.098 -15.014 -26.230  0.00  0.00    +0.083 C 
ATOM      6  C   UNL     1      33.253 -13.526 -25.973  0.00  0.00    -0.014 C 
ATOM      7  CA  UNL     1      33.639 -13.043 -24.769  0.00  0.00    +0.115 C 
ATOM      8  C   UNL     1      32.906 -12.693 -27.183  0.00  0.00    +0.029 C 
ATOM      9  H   UNL     1      34.256 -13.359 -22.863  0.00  0.00    +0.148 HD
BRANCH   7  11
ATOM     10  OXT UNL     1      33.080 -10.882 -23.953  0.00  0.00    -0.244 OA
ATOM     11  C   UNL     1      33.842 -11.597 -24.567  0.00  0.00    +0.351 C 
BRANCH  11  12
ATOM     12  O   UNL     1      34.988 -11.223 -25.168  0.00  0.00    -0.476 OA
ATOM     13  H   UNL     1      35.810 -11.395 -24.755  0.00  0.00    +0.295 HD
ENDBRANCH  11  12
ENDBRANCH   7  11
ENDBRANCH   1   4
BRANCH   1  15
ATOM     14  O   UNL     1      35.635 -17.674 -20.538  0.00  0.00    -0.275 OA
ATOM     15  N   UNL     1      34.644 -17.248 -22.595  0.00  0.00    -0.294 N 
ATOM     16  C   UNL     1      35.203 -18.065 -21.621  0.00  0.00    +0.228 C 
ATOM     17  H   UNL     1      34.327 -17.660 -23.431  0.00  0.00    +0.150 HD
BRANCH  16  18
ATOM     18  C   UNL     1      35.224 -19.530 -22.010  0.00  0.00    +0.118 C 
BRANCH  18  20
ATOM     19  S   UNL     1      35.715 -21.325 -19.972  0.00  0.00    -0.090 S 
ATOM     20  C   UNL     1      34.661 -20.347 -20.880  0.00  0.00    +0.016 C 
ATOM     21  C   UNL     1      33.364 -20.415 -20.467  0.00  0.00    +0.003 C 
ATOM     22  C   UNL     1      33.219 -21.301 -19.361  0.00  0.00    +0.007 C 
ATOM     23  C   UNL     1      34.420 -21.864 -18.989  0.00  0.00    +0.035 C 
ENDBRANCH  18  20
ENDBRANCH  16  18
ENDBRANCH   1  15
BRANCH   1  25
ATOM     24  OXT UNL     1      32.735 -15.630 -20.801  0.00  0.00    -0.248 OA
ATOM     25  C   UNL     1      33.917 -15.463 -21.082  0.00  0.00    +0.334 C 
BRANCH  25  26
ATOM     26  O   UNL     1      34.800 -14.925 -20.206  0.00  0.00    -0.479 OA
ATOM     27  H   UNL     1      34.550 -14.193 -19.679  0.00  0.00    +0.295 HD
ENDBRANCH  25  26
ENDBRANCH   1  25
TORSDOF 8
ENDMDL
MODEL 2
REMARK VINA RESULT:      -8.7      6.878     11.908
REMARK  Name = 5288660
REMARK  8 active torsions:
REMARK  status: ('A' for Active; 'I' for Inactive)
REMARK    1  A    between atoms: CA_1  and  C_4
REMARK    2  A    between atoms: CA_1  and  N_15
REMARK    3  A    between atoms: CA_1  and  C_25
REMARK    4  A    between atoms: CA_7  and  C_11
REMARK    5  A    between atoms: C_11  and  O_12
REMARK    6  A    between atoms: C_16  and  C_18
REMARK    7  A    between atoms: C_18  and  C_20
REMARK    8  A    between atoms: C_25  and  O_26
REMARK                            x       y       z     vdW  Elec       q    Type
REMARK                         _______ _______ _______ _____ _____    ______ ____
ROOT
ATOM      1  CA  UNL     1      33.848 -23.712 -16.525  0.00  0.00    +0.200 C 
ENDROOT
BRANCH   1   4
ATOM      2  S   UNL     1      35.560 -22.616 -14.697  0.00  0.00    -0.115 S 
ATOM      3  N   UNL     1      35.494 -25.188 -15.510  0.00  0.00    -0.319 N 
ATOM      4  C   UNL     1      34.611 -24.066 -15.255  0.00  0.00    +0.148 C 
ATOM      5  C   UNL     1      36.499 -23.423 -13.370  0.00  0.00    +0.083 C 
ATOM      6  C   UNL     1      37.108 -24.759 -13.756  0.00  0.00    -0.014 C 
ATOM      7  CA  UNL     1      36.607 -25.511 -14.763  0.00  0.00    +0.115 C 
ATOM      8  C   UNL     1      38.281 -25.132 -12.882  0.00  0.00    +0.029 C 
ATOM      9  H   UNL     1      35.282 -25.764 -16.278  0.00  0.00    +0.148 HD
BRANCH   7  11
ATOM     10  OXT UNL     1      38.178 -27.283 -14.553  0.00  0.00    -0.244 OA
ATOM     11  C   UNL     1      37.258 -26.774 -15.157  0.00  0.00    +0.351 C 
BRANCH  11  12
ATOM     12  O   UNL     1      36.669 -27.247 -16.272  0.00  0.00    -0.476 OA
ATOM     13  H   UNL     1      37.106 -27.179 -17.097  0.00  0.00    +0.295 HD
ENDBRANCH  11  12
ENDBRANCH   7  11
ENDBRANCH   1   4
BRANCH   1  15
ATOM     14  O   UNL     1      33.961 -23.626 -19.398  0.00  0.00    -0.275 OA
ATOM     15  N   UNL     1      34.609 -22.794 -17.329  0.00  0.00    -0.294 N 
ATOM     16  C   UNL     1      34.602 -22.828 -18.717  0.00  0.00    +0.228 C 
ATOM     17  H   UNL     1      35.157 -22.113 -16.877  0.00  0.00    +0.150 HD
BRANCH  16  18
ATOM     18  C   UNL     1      35.466 -21.753 -19.346  0.00  0.00    +0.118 C 
BRANCH  18  20
ATOM     19  S   UNL     1      35.299 -19.602 -21.067  0.00  0.00    -0.090 S 
ATOM     20  C   UNL     1      34.582 -20.755 -20.042  0.00  0.00    +0.016 C 
ATOM     21  C   UNL     1      33.227 -20.642 -19.961  0.00  0.00    +0.003 C 
ATOM     22  C   UNL     1      32.747 -19.572 -20.768  0.00  0.00    +0.007 C 
ATOM     23  C   UNL     1      33.769 -18.922 -21.425  0.00  0.00    +0.035 C 
ENDBRANCH  18  20
ENDBRANCH  16  18
ENDBRANCH   1  15
BRANCH   1  25
ATOM     24  OXT UNL     1      32.051 -23.101 -15.028  0.00  0.00    -0.248 OA
ATOM     25  C   UNL     1      32.478 -23.157 -16.176  0.00  0.00    +0.334 C 
BRANCH  25  26
ATOM     26  O   UNL     1      31.751 -22.737 -17.240  0.00  0.00    -0.479 OA
ATOM     27  H   UNL     1      31.600 -23.316 -17.961  0.00  0.00    +0.295 HD
ENDBRANCH  25  26
ENDBRANCH   1  25
TORSDOF 8
ENDMDL
MODEL 3
REMARK VINA RESULT:      -8.5      8.053     12.584
REMARK  Name = 5288660
REMARK  8 active torsions:
REMARK  status: ('A' for Active; 'I' for Inactive)
REMARK    1  A    between atoms: CA_1  and  C_4
REMARK    2  A    between atoms: CA_1  and  N_15
REMARK    3  A    between atoms: CA_1  and  C_25
REMARK    4  A    between atoms: CA_7  and  C_11
REMARK    5  A    between atoms: C_11  and  O_12
REMARK    6  A    between atoms: C_16  and  C_18
REMARK    7  A    between atoms: C_18  and  C_20
REMARK    8  A    between atoms: C_25  and  O_26
REMARK                            x       y       z     vdW  Elec       q    Type
REMARK                         _______ _______ _______ _____ _____    ______ ____
ROOT
ATOM      1  CA  UNL     1      33.502 -24.120 -15.076  0.00  0.00    +0.200 C 
ENDROOT
BRANCH   1   4
ATOM      2  S   UNL     1      35.856 -25.469 -15.406  0.00  0.00    -0.115 S 
ATOM      3  N   UNL     1      35.143 -23.960 -13.287  0.00  0.00    -0.319 N 
ATOM      4  C   UNL     1      34.982 -24.025 -14.726  0.00  0.00    +0.148 C 
ATOM      5  C   UNL     1      37.471 -25.176 -14.629  0.00  0.00    +0.083 C 
ATOM      6  C   UNL     1      37.403 -24.821 -13.155  0.00  0.00    -0.014 C 
ATOM      7  CA  UNL     1      36.293 -24.282 -12.599  0.00  0.00    +0.115 C 
ATOM      8  C   UNL     1      38.695 -25.113 -12.432  0.00  0.00    +0.029 C 
ATOM      9  H   UNL     1      34.368 -23.663 -12.758  0.00  0.00    +0.148 HD
BRANCH   7  11
ATOM     10  OXT UNL     1      36.864 -23.131 -10.598  0.00  0.00    -0.244 OA
ATOM     11  C   UNL     1      36.234 -24.007 -11.151  0.00  0.00    +0.351 C 
BRANCH  11  12
ATOM     12  O   UNL     1      35.383 -24.874 -10.570  0.00  0.00    -0.476 OA
ATOM     13  H   UNL     1      34.506 -24.611 -10.378  0.00  0.00    +0.295 HD
ENDBRANCH  11  12
ENDBRANCH   7  11
ENDBRANCH   1   4
BRANCH   1  15
ATOM     14  O   UNL     1      33.719 -24.394 -17.932  0.00  0.00    -0.275 OA
ATOM     15  N   UNL     1      33.155 -23.134 -16.064  0.00  0.00    -0.294 N 
ATOM     16  C   UNL     1      33.294 -23.356 -17.428  0.00  0.00    +0.228 C 
ATOM     17  H   UNL     1      32.804 -22.266 -15.761  0.00  0.00    +0.150 HD
BRANCH  16  18
ATOM     18  C   UNL     1      32.848 -22.179 -18.273  0.00  0.00    +0.118 C 
BRANCH  18  20
ATOM     19  S   UNL     1      33.755 -20.534 -20.294  0.00  0.00    -0.090 S 
ATOM     20  C   UNL     1      34.028 -21.646 -19.036  0.00  0.00    +0.016 C 
ATOM     21  C   UNL     1      35.345 -21.943 -18.850  0.00  0.00    +0.003 C 
ATOM     22  C   UNL     1      36.170 -21.236 -19.770  0.00  0.00    +0.007 C 
ATOM     23  C   UNL     1      35.435 -20.433 -20.614  0.00  0.00    +0.035 C 
ENDBRANCH  18  20
ENDBRANCH  16  18
ENDBRANCH   1  15
BRANCH   1  25
ATOM     24  OXT UNL     1      32.244 -24.951 -13.187  0.00  0.00    -0.248 OA
ATOM     25  C   UNL     1      32.657 -23.987 -13.822  0.00  0.00    +0.334 C 
BRANCH  25  26
ATOM     26  O   UNL     1      32.379 -22.710 -13.461  0.00  0.00    -0.479 OA
ATOM     27  H   UNL     1      31.583 -22.514 -13.009  0.00  0.00    +0.295 HD
ENDBRANCH  25  26
ENDBRANCH   1  25
TORSDOF 8
ENDMDL
MODEL 4
REMARK VINA RESULT:      -8.5      2.947      7.968
REMARK  Name = 5288660
REMARK  8 active torsions:
REMARK  status: ('A' for Active; 'I' for Inactive)
REMARK    1  A    between atoms: CA_1  and  C_4
REMARK    2  A    between atoms: CA_1  and  N_15
REMARK    3  A    between atoms: CA_1  and  C_25
REMARK    4  A    between atoms: CA_7  and  C_11
REMARK    5  A    between atoms: C_11  and  O_12
REMARK    6  A    between atoms: C_16  and  C_18
REMARK    7  A    between atoms: C_18  and  C_20
REMARK    8  A    between atoms: C_25  and  O_26
REMARK                            x       y       z     vdW  Elec       q    Type
REMARK                         _______ _______ _______ _____ _____    ______ ____
ROOT
ATOM      1  CA  UNL     1      33.299 -13.215 -23.664  0.00  0.00    +0.200 C 
ENDROOT
BRANCH   1   4
ATOM      2  S   UNL     1      33.560 -15.518 -25.111  0.00  0.00    -0.115 S 
ATOM      3  N   UNL     1      34.418 -15.089 -22.590  0.00  0.00    -0.319 N 
ATOM      4  C   UNL     1      34.242 -14.396 -23.851  0.00  0.00    +0.148 C 
ATOM      5  C   UNL     1      34.751 -16.874 -24.914  0.00  0.00    +0.083 C 
ATOM      6  C   UNL     1      35.031 -17.259 -23.473  0.00  0.00    -0.014 C 
ATOM      7  CA  UNL     1      34.838 -16.395 -22.450  0.00  0.00    +0.115 C 
ATOM      8  C   UNL     1      35.558 -18.667 -23.345  0.00  0.00    +0.029 C 
ATOM      9  H   UNL     1      34.221 -14.587 -21.767  0.00  0.00    +0.148 HD
BRANCH   7  11
ATOM     10  OXT UNL     1      35.314 -17.953 -20.720  0.00  0.00    -0.244 OA
ATOM     11  C   UNL     1      35.056 -16.817 -21.055  0.00  0.00    +0.351 C 
BRANCH  11  12
ATOM     12  O   UNL     1      34.923 -15.751 -20.243  0.00  0.00    -0.476 OA
ATOM     13  H   UNL     1      35.635 -15.487 -19.696  0.00  0.00    +0.295 HD
ENDBRANCH  11  12
ENDBRANCH   7  11
ENDBRANCH   1   4
BRANCH   1  15
ATOM     14  O   UNL     1      33.768 -11.531 -25.949  0.00  0.00    -0.275 OA
ATOM     15  N   UNL     1      34.032 -11.978 -23.686  0.00  0.00    -0.294 N 
ATOM     16  C   UNL     1      34.207 -11.229 -24.842  0.00  0.00    +0.228 C 
ATOM     17  H   UNL     1      34.426 -11.648 -22.845  0.00  0.00    +0.150 HD
BRANCH  16  18
ATOM     18  C   UNL     1      35.000  -9.956 -24.615  0.00  0.00    +0.118 C 
BRANCH  18  20
ATOM     19  S   UNL     1      32.481  -9.288 -23.706  0.00  0.00    -0.090 S 
ATOM     20  C   UNL     1      34.143  -8.969 -23.871  0.00  0.00    +0.016 C 
ATOM     21  C   UNL     1      34.533  -7.802 -23.285  0.00  0.00    +0.003 C 
ATOM     22  C   UNL     1      33.433  -7.137 -22.674  0.00  0.00    +0.007 C 
ATOM     23  C   UNL     1      32.255  -7.836 -22.827  0.00  0.00    +0.035 C 
ENDBRANCH  18  20
ENDBRANCH  16  18
ENDBRANCH   1  15
BRANCH   1  25
ATOM     24  OXT UNL     1      32.038 -14.451 -22.014  0.00  0.00    -0.248 OA
ATOM     25  C   UNL     1      32.501 -13.378 -22.382  0.00  0.00    +0.334 C 
BRANCH  25  26
ATOM     26  O   UNL     1      32.328 -12.234 -21.676  0.00  0.00    -0.479 OA
ATOM     27  H   UNL     1      32.263 -12.265 -20.742  0.00  0.00    +0.295 HD
ENDBRANCH  25  26
ENDBRANCH   1  25
TORSDOF 8
ENDMDL
MODEL 5
REMARK VINA RESULT:      -8.3      8.530     11.126
REMARK  Name = 5288660
REMARK  8 active torsions:
REMARK  status: ('A' for Active; 'I' for Inactive)
REMARK    1  A    between atoms: CA_1  and  C_4
REMARK    2  A    between atoms: CA_1  and  N_15
REMARK    3  A    between atoms: CA_1  and  C_25
REMARK    4  A    between atoms: CA_7  and  C_11
REMARK    5  A    between atoms: C_11  and  O_12
REMARK    6  A    between atoms: C_16  and  C_18
REMARK    7  A    between atoms: C_18  and  C_20
REMARK    8  A    between atoms: C_25  and  O_26
REMARK                            x       y       z     vdW  Elec       q    Type
REMARK                         _______ _______ _______ _____ _____    ______ ____
ROOT
ATOM      1  CA  UNL     1      34.506 -24.438 -14.234  0.00  0.00    +0.200 C 
ENDROOT
BRANCH   1   4
ATOM      2  S   UNL     1      36.268 -22.500 -15.015  0.00  0.00    -0.115 S 
ATOM      3  N   UNL     1      34.392 -23.689 -16.546  0.00  0.00    -0.319 N 
ATOM      4  C   UNL     1      35.298 -23.977 -15.451  0.00  0.00    +0.148 C 
ATOM      5  C   UNL     1      36.868 -22.091 -16.679  0.00  0.00    +0.083 C 
ATOM      6  C   UNL     1      35.802 -22.138 -17.759  0.00  0.00    -0.014 C 
ATOM      7  CA  UNL     1      34.678 -22.880 -17.625  0.00  0.00    +0.115 C 
ATOM      8  C   UNL     1      36.164 -21.304 -18.963  0.00  0.00    +0.029 C 
ATOM      9  H   UNL     1      33.501 -24.105 -16.516  0.00  0.00    +0.148 HD
BRANCH   7  11
ATOM     10  OXT UNL     1      32.691 -22.091 -18.663  0.00  0.00    -0.244 OA
ATOM     11  C   UNL     1      33.631 -22.856 -18.662  0.00  0.00    +0.351 C 
BRANCH  11  12
ATOM     12  O   UNL     1      33.894 -23.806 -19.580  0.00  0.00    -0.476 OA
ATOM     13  H   UNL     1      34.731 -24.225 -19.592  0.00  0.00    +0.295 HD
ENDBRANCH  11  12
ENDBRANCH   7  11
ENDBRANCH   1   4
BRANCH   1  15
ATOM     14  O   UNL     1      31.850 -25.466 -13.827  0.00  0.00    -0.275 OA
ATOM     15  N   UNL     1      33.297 -23.670 -14.101  0.00  0.00    -0.294 N 
ATOM     16  C   UNL     1      32.053 -24.256 -13.906  0.00  0.00    +0.228 C 
ATOM     17  H   UNL     1      33.354 -22.688 -14.149  0.00  0.00    +0.150 HD
BRANCH  16  18
ATOM     18  C   UNL     1      30.931 -23.245 -13.776  0.00  0.00    +0.118 C 
BRANCH  18  20
ATOM     19  S   UNL     1      28.980 -24.713 -15.064  0.00  0.00    -0.090 S 
ATOM     20  C   UNL     1      30.017 -23.369 -14.965  0.00  0.00    +0.016 C 
ATOM     21  C   UNL     1      29.902 -22.514 -16.020  0.00  0.00    +0.003 C 
ATOM     22  C   UNL     1      28.926 -22.971 -16.951  0.00  0.00    +0.007 C 
ATOM     23  C   UNL     1      28.347 -24.156 -16.554  0.00  0.00    +0.035 C 
ENDBRANCH  18  20
ENDBRANCH  16  18
ENDBRANCH   1  15
BRANCH   1  25
ATOM     24  OXT UNL     1      36.431 -24.958 -12.867  0.00  0.00    -0.248 OA
ATOM     25  C   UNL     1      35.368 -24.358 -12.987  0.00  0.00    +0.334 C 
BRANCH  25  26
ATOM     26  O   UNL     1      34.863 -23.577 -12.001  0.00  0.00    -0.479 OA
ATOM     27  H   UNL     1      34.311 -22.850 -12.215  0.00  0.00    +0.295 HD
ENDBRANCH  25  26
ENDBRANCH   1  25
TORSDOF 8
ENDMDL
MODEL 6
REMARK VINA RESULT:      -8.2      2.137      2.575
REMARK  Name = 5288660
REMARK  8 active torsions:
REMARK  status: ('A' for Active; 'I' for Inactive)
REMARK    1  A    between atoms: CA_1  and  C_4
REMARK    2  A    between atoms: CA_1  and  N_15
REMARK    3  A    between atoms: CA_1  and  C_25
REMARK    4  A    between atoms: CA_7  and  C_11
REMARK    5  A    between atoms: C_11  and  O_12
REMARK    6  A    between atoms: C_16  and  C_18
REMARK    7  A    between atoms: C_18  and  C_20
REMARK    8  A    between atoms: C_25  and  O_26
REMARK                            x       y       z     vdW  Elec       q    Type
REMARK                         _______ _______ _______ _____ _____    ______ ____
ROOT
ATOM      1  CA  UNL     1      33.817 -15.960 -21.079  0.00  0.00    +0.200 C 
ENDROOT
BRANCH   1   4
ATOM      2  S   UNL     1      32.878 -13.630 -22.155  0.00  0.00    -0.115 S 
ATOM      3  N   UNL     1      33.908 -15.730 -23.499  0.00  0.00    -0.319 N 
ATOM      4  C   UNL     1      34.057 -15.013 -22.248  0.00  0.00    +0.148 C 
ATOM      5  C   UNL     1      33.261 -12.863 -23.755  0.00  0.00    +0.083 C 
ATOM      6  C   UNL     1      33.358 -13.841 -24.912  0.00  0.00    -0.014 C 
ATOM      7  CA  UNL     1      33.641 -15.151 -24.722  0.00  0.00    +0.115 C 
ATOM      8  C   UNL     1      33.134 -13.177 -26.249  0.00  0.00    +0.029 C 
ATOM      9  H   UNL     1      34.005 -16.708 -23.474  0.00  0.00    +0.148 HD
BRANCH   7  11
ATOM     10  OXT UNL     1      32.738 -16.260 -26.620  0.00  0.00    -0.244 OA
ATOM     11  C   UNL     1      33.665 -16.089 -25.858  0.00  0.00    +0.351 C 
BRANCH  11  12
ATOM     12  O   UNL     1      34.862 -16.705 -25.898  0.00  0.00    -0.476 OA
ATOM     13  H   UNL     1      34.930 -17.575 -26.237  0.00  0.00    +0.295 HD
ENDBRANCH  11  12
ENDBRANCH   7  11
ENDBRANCH   1   4
BRANCH   1  15
ATOM     14  O   UNL     1      35.871 -17.883 -20.478  0.00  0.00    -0.275 OA
ATOM     15  N   UNL     1      33.872 -17.328 -21.521  0.00  0.00    -0.294 N 
ATOM     16  C   UNL     1      34.908 -18.187 -21.179  0.00  0.00    +0.228 C 
ATOM     17  H   UNL     1      33.144 -17.670 -22.089  0.00  0.00    +0.150 HD
BRANCH  16  18
ATOM     18  C   UNL     1      34.740 -19.582 -21.747  0.00  0.00    +0.118 C 
BRANCH  18  20
ATOM     19  S   UNL     1      35.750 -21.379 -19.912  0.00  0.00    -0.090 S 
ATOM     20  C   UNL     1      34.453 -20.540 -20.624  0.00  0.00    +0.016 C 
ATOM     21  C   UNL     1      33.243 -20.841 -20.074  0.00  0.00    +0.003 C 
ATOM     22  C   UNL     1      33.374 -21.796 -19.027  0.00  0.00    +0.007 C 
ATOM     23  C   UNL     1      34.685 -22.175 -18.833  0.00  0.00    +0.035 C 
ENDBRANCH  18  20
ENDBRANCH  16  18
ENDBRANCH   1  15
BRANCH   1  25
ATOM     24  OXT UNL     1      32.346 -14.681 -19.651  0.00  0.00    -0.248 OA
ATOM     25  C   UNL     1      32.496 -15.636 -20.404  0.00  0.00    +0.334 C 
BRANCH  25  26
ATOM     26  O   UNL     1      31.490 -16.499 -20.690  0.00  0.00    -0.479 OA
ATOM     27  H   UNL     1      31.531 -17.027 -21.462  0.00  0.00    +0.295 HD
ENDBRANCH  25  26
ENDBRANCH   1  25
TORSDOF 8
ENDMDL
MODEL 7
REMARK VINA RESULT:      -8.2      2.151      2.718
REMARK  Name = 5288660
REMARK  8 active torsions:
REMARK  status: ('A' for Active; 'I' for Inactive)
REMARK    1  A    between atoms: CA_1  and  C_4
REMARK    2  A    between atoms: CA_1  and  N_15
REMARK    3  A    between atoms: CA_1  and  C_25
REMARK    4  A    between atoms: CA_7  and  C_11
REMARK    5  A    between atoms: C_11  and  O_12
REMARK    6  A    between atoms: C_16  and  C_18
REMARK    7  A    between atoms: C_18  and  C_20
REMARK    8  A    between atoms: C_25  and  O_26
REMARK                            x       y       z     vdW  Elec       q    Type
REMARK                         _______ _______ _______ _____ _____    ______ ____
ROOT
ATOM      1  CA  UNL     1      33.848 -16.033 -23.364  0.00  0.00    +0.200 C 
ENDROOT
BRANCH   1   4
ATOM      2  S   UNL     1      32.352 -14.133 -22.093  0.00  0.00    -0.115 S 
ATOM      3  N   UNL     1      34.044 -13.742 -24.157  0.00  0.00    -0.319 N 
ATOM      4  C   UNL     1      33.887 -14.562 -22.972  0.00  0.00    +0.148 C 
ATOM      5  C   UNL     1      32.610 -12.338 -21.995  0.00  0.00    +0.083 C 
ATOM      6  C   UNL     1      33.071 -11.699 -23.293  0.00  0.00    -0.014 C 
ATOM      7  CA  UNL     1      33.709 -12.408 -24.253  0.00  0.00    +0.115 C 
ATOM      8  C   UNL     1      32.761 -10.224 -23.350  0.00  0.00    +0.029 C 
ATOM      9  H   UNL     1      34.419 -14.172 -24.958  0.00  0.00    +0.148 HD
BRANCH   7  11
ATOM     10  OXT UNL     1      34.901 -10.883 -25.632  0.00  0.00    -0.244 OA
ATOM     11  C   UNL     1      34.088 -11.776 -25.530  0.00  0.00    +0.351 C 
BRANCH  11  12
ATOM     12  O   UNL     1      33.392 -12.347 -26.531  0.00  0.00    -0.476 OA
ATOM     13  H   UNL     1      32.795 -11.834 -27.038  0.00  0.00    +0.295 HD
ENDBRANCH  11  12
ENDBRANCH   7  11
ENDBRANCH   1   4
BRANCH   1  15
ATOM     14  O   UNL     1      34.428 -18.844 -23.571  0.00  0.00    -0.275 OA
ATOM     15  N   UNL     1      34.658 -16.814 -22.468  0.00  0.00    -0.294 N 
ATOM     16  C   UNL     1      34.884 -18.172 -22.648  0.00  0.00    +0.228 C 
ATOM     17  H   UNL     1      35.071 -16.366 -21.694  0.00  0.00    +0.150 HD
BRANCH  16  18
ATOM     18  C   UNL     1      35.782 -18.775 -21.586  0.00  0.00    +0.118 C 
BRANCH  18  20
ATOM     19  S   UNL     1      35.853 -21.037 -20.007  0.00  0.00    -0.090 S 
ATOM     20  C   UNL     1      35.005 -19.798 -20.806  0.00  0.00    +0.016 C 
ATOM     21  C   UNL     1      33.654 -19.873 -20.644  0.00  0.00    +0.003 C 
ATOM     22  C   UNL     1      33.291 -20.986 -19.834  0.00  0.00    +0.007 C 
ATOM     23  C   UNL     1      34.391 -21.705 -19.419  0.00  0.00    +0.035 C 
ENDBRANCH  18  20
ENDBRANCH  16  18
ENDBRANCH   1  15
BRANCH   1  25
ATOM     24  OXT UNL     1      33.490 -16.232 -25.746  0.00  0.00    -0.248 OA
ATOM     25  C   UNL     1      34.281 -16.203 -24.810  0.00  0.00    +0.334 C 
BRANCH  25  26
ATOM     26  O   UNL     1      35.618 -16.334 -24.988  0.00  0.00    -0.479 OA
ATOM     27  H   UNL     1      36.205 -15.718 -24.596  0.00  0.00    +0.295 HD
ENDBRANCH  25  26
ENDBRANCH   1  25
TORSDOF 8
ENDMDL
MODEL 8
REMARK VINA RESULT:      -8.2      9.891     12.767
REMARK  Name = 5288660
REMARK  8 active torsions:
REMARK  status: ('A' for Active; 'I' for Inactive)
REMARK    1  A    between atoms: CA_1  and  C_4
REMARK    2  A    between atoms: CA_1  and  N_15
REMARK    3  A    between atoms: CA_1  and  C_25
REMARK    4  A    between atoms: CA_7  and  C_11
REMARK    5  A    between atoms: C_11  and  O_12
REMARK    6  A    between atoms: C_16  and  C_18
REMARK    7  A    between atoms: C_18  and  C_20
REMARK    8  A    between atoms: C_25  and  O_26
REMARK                            x       y       z     vdW  Elec       q    Type
REMARK                         _______ _______ _______ _____ _____    ______ ____
ROOT
ATOM      1  CA  UNL     1      34.431 -23.086 -15.588  0.00  0.00    +0.200 C 
ENDROOT
BRANCH   1   4
ATOM      2  S   UNL     1      35.743 -25.459 -15.248  0.00  0.00    -0.115 S 
ATOM      3  N   UNL     1      36.083 -23.205 -13.806  0.00  0.00    -0.319 N 
ATOM      4  C   UNL     1      35.782 -23.642 -15.155  0.00  0.00    +0.148 C 
ATOM      5  C   UNL     1      37.348 -25.787 -14.465  0.00  0.00    +0.083 C 
ATOM      6  C   UNL     1      37.602 -24.990 -13.198  0.00  0.00    -0.014 C 
ATOM      7  CA  UNL     1      36.971 -23.819 -12.949  0.00  0.00    +0.115 C 
ATOM      8  C   UNL     1      38.630 -25.641 -12.305  0.00  0.00    +0.029 C 
ATOM      9  H   UNL     1      35.615 -22.405 -13.475  0.00  0.00    +0.148 HD
BRANCH   7  11
ATOM     10  OXT UNL     1      36.702 -23.426 -10.621  0.00  0.00    -0.244 OA
ATOM     11  C   UNL     1      37.190 -23.100 -11.681  0.00  0.00    +0.351 C 
BRANCH  11  12
ATOM     12  O   UNL     1      38.002 -22.049 -11.902  0.00  0.00    -0.476 OA
ATOM     13  H   UNL     1      38.279 -21.846 -12.773  0.00  0.00    +0.295 HD
ENDBRANCH  11  12
ENDBRANCH   7  11
ENDBRANCH   1   4
BRANCH   1  15
ATOM     14  O   UNL     1      33.254 -23.346 -12.976  0.00  0.00    -0.275 OA
ATOM     15  N   UNL     1      33.373 -23.982 -15.206  0.00  0.00    -0.294 N 
ATOM     16  C   UNL     1      32.866 -24.037 -13.915  0.00  0.00    +0.228 C 
ATOM     17  H   UNL     1      32.992 -24.580 -15.889  0.00  0.00    +0.150 HD
BRANCH  16  18
ATOM     18  C   UNL     1      31.744 -25.045 -13.757  0.00  0.00    +0.118 C 
BRANCH  18  20
ATOM     19  S   UNL     1      30.155 -22.973 -14.651  0.00  0.00    -0.090 S 
ATOM     20  C   UNL     1      30.577 -24.620 -14.605  0.00  0.00    +0.016 C 
ATOM     21  C   UNL     1      29.776 -25.408 -15.376  0.00  0.00    +0.003 C 
ATOM     22  C   UNL     1      28.775 -24.640 -16.034  0.00  0.00    +0.007 C 
ATOM     23  C   UNL     1      28.865 -23.299 -15.729  0.00  0.00    +0.035 C 
ENDBRANCH  18  20
ENDBRANCH  16  18
ENDBRANCH   1  15
BRANCH   1  25
ATOM     24  OXT UNL     1      33.424 -22.892 -17.777  0.00  0.00    -0.248 OA
ATOM     25  C   UNL     1      34.431 -22.813 -17.082  0.00  0.00    +0.334 C 
BRANCH  25  26
ATOM     26  O   UNL     1      35.642 -22.486 -17.596  0.00  0.00    -0.479 OA
ATOM     27  H   UNL     1      36.413 -22.919 -17.289  0.00  0.00    +0.295 HD
ENDBRANCH  25  26
ENDBRANCH   1  25
TORSDOF 8
ENDMDL
MODEL 9
REMARK VINA RESULT:      -8.2      3.798      8.234
REMARK  Name = 5288660
REMARK  8 active torsions:
REMARK  status: ('A' for Active; 'I' for Inactive)
REMARK    1  A    between atoms: CA_1  and  C_4
REMARK    2  A    between atoms: CA_1  and  N_15
REMARK    3  A    between atoms: CA_1  and  C_25
REMARK    4  A    between atoms: CA_7  and  C_11
REMARK    5  A    between atoms: C_11  and  O_12
REMARK    6  A    between atoms: C_16  and  C_18
REMARK    7  A    between atoms: C_18  and  C_20
REMARK    8  A    between atoms: C_25  and  O_26
REMARK                            x       y       z     vdW  Elec       q    Type
REMARK                         _______ _______ _______ _____ _____    ______ ____
ROOT
ATOM      1  CA  UNL     1      33.441 -13.262 -23.503  0.00  0.00    +0.200 C 
ENDROOT
BRANCH   1   4
ATOM      2  S   UNL     1      34.513 -14.714 -21.451  0.00  0.00    -0.115 S 
ATOM      3  N   UNL     1      33.896 -15.616 -23.917  0.00  0.00    -0.319 N 
ATOM      4  C   UNL     1      33.439 -14.669 -22.919  0.00  0.00    +0.148 C 
ATOM      5  C   UNL     1      34.477 -16.506 -21.166  0.00  0.00    +0.083 C 
ATOM      6  C   UNL     1      34.684 -17.344 -22.415  0.00  0.00    -0.014 C 
ATOM      7  CA  UNL     1      34.414 -16.865 -23.651  0.00  0.00    +0.115 C 
ATOM      8  C   UNL     1      35.183 -18.733 -22.101  0.00  0.00    +0.029 C 
ATOM      9  H   UNL     1      33.833 -15.344 -24.861  0.00  0.00    +0.148 HD
BRANCH   7  11
ATOM     10  OXT UNL     1      34.406 -18.855 -24.952  0.00  0.00    -0.244 OA
ATOM     11  C   UNL     1      34.685 -17.679 -24.850  0.00  0.00    +0.351 C 
BRANCH  11  12
ATOM     12  O   UNL     1      35.279 -16.911 -25.783  0.00  0.00    -0.476 OA
ATOM     13  H   UNL     1      36.205 -16.959 -25.908  0.00  0.00    +0.295 HD
ENDBRANCH  11  12
ENDBRANCH   7  11
ENDBRANCH   1   4
BRANCH   1  15
ATOM     14  O   UNL     1      33.372 -10.387 -23.404  0.00  0.00    -0.275 OA
ATOM     15  N   UNL     1      32.450 -12.446 -22.854  0.00  0.00    -0.294 N 
ATOM     16  C   UNL     1      32.499 -11.059 -22.858  0.00  0.00    +0.228 C 
ATOM     17  H   UNL     1      31.706 -12.891 -22.387  0.00  0.00    +0.150 HD
BRANCH  16  18
ATOM     18  C   UNL     1      31.338 -10.418 -22.124  0.00  0.00    +0.118 C 
BRANCH  18  20
ATOM     19  S   UNL     1      31.513  -7.701 -22.575  0.00  0.00    -0.090 S 
ATOM     20  C   UNL     1      31.766  -9.074 -21.603  0.00  0.00    +0.016 C 
ATOM     21  C   UNL     1      32.354  -8.792 -20.407  0.00  0.00    +0.003 C 
ATOM     22  C   UNL     1      32.611  -7.398 -20.272  0.00  0.00    +0.007 C 
ATOM     23  C   UNL     1      32.203  -6.687 -21.379  0.00  0.00    +0.035 C 
ENDBRANCH  18  20
ENDBRANCH  16  18
ENDBRANCH   1  15
BRANCH   1  25
ATOM     24  OXT UNL     1      32.537 -14.165 -25.555  0.00  0.00    -0.248 OA
ATOM     25  C   UNL     1      33.232 -13.317 -25.006  0.00  0.00    +0.334 C 
BRANCH  25  26
ATOM     26  O   UNL     1      33.889 -12.357 -25.703  0.00  0.00    -0.479 OA
ATOM     27  H   UNL     1      34.372 -12.585 -26.472  0.00  0.00    +0.295 HD
ENDBRANCH  25  26
ENDBRANCH   1  25
TORSDOF 8
ENDMDL
