MODEL 1
REMARK VINA RESULT:      -7.7      0.000      0.000
REMARK  Name = 806138
REMARK  3 active torsions:
REMARK  status: ('A' for Active; 'I' for Inactive)
REMARK    1  A    between atoms: C_8  and  O_14
REMARK    2  A    between atoms: C_9  and  C_16
REMARK    3  A    between atoms: C_16  and  O_17
REMARK                            x       y       z     vdW  Elec       q    Type
REMARK                         _______ _______ _______ _____ _____    ______ ____
ROOT
ATOM      1  O   UNL     1      37.637 -24.118 -14.286  0.00  0.00    -0.332 OA
ATOM      2  O   UNL     1      35.451 -23.938 -11.944  0.00  0.00    -0.437 OA
ATOM      3  O   UNL     1      31.567 -24.554 -14.400  0.00  0.00    -0.209 OA
ATOM      4  N   UNL     1      35.372 -23.403 -14.121  0.00  0.00    -0.204 N 
ATOM      5  N   UNL     1      33.435 -24.300 -13.067  0.00  0.00    -0.281 NA
ATOM      6  C   UNL     1      36.693 -23.267 -12.256  0.00  0.00    +0.246 C 
ATOM      7  C   UNL     1      36.738 -23.126 -13.776  0.00  0.00    +0.244 C 
ATOM      8  C   UNL     1      37.882 -24.137 -11.926  0.00  0.00    +0.185 C 
ATOM      9  C   UNL     1      38.146 -24.919 -13.206  0.00  0.00    +0.177 C 
ATOM     10  C   UNL     1      34.666 -23.898 -13.062  0.00  0.00    +0.359 C 
ATOM     11  C   UNL     1      34.753 -23.311 -15.333  0.00  0.00    +0.086 C 
ATOM     12  C   UNL     1      33.475 -23.685 -15.476  0.00  0.00    +0.123 C 
ATOM     13  C   UNL     1      32.741 -24.216 -14.271  0.00  0.00    +0.210 C 
ENDROOT
BRANCH   8  14
ATOM     14  O   UNL     1      39.006 -23.298 -11.657  0.00  0.00    -0.378 OA
ATOM     15  H   UNL     1      39.438 -23.589 -10.839  0.00  0.00    +0.211 HD
ENDBRANCH   8  14
BRANCH   9  16
ATOM     16  C   UNL     1      37.460 -26.278 -13.242  0.00  0.00    +0.169 C 
BRANCH  16  17
ATOM     17  O   UNL     1      36.874 -26.530 -11.975  0.00  0.00    -0.379 OA
ATOM     18  H   UNL     1      37.571 -26.595 -11.303  0.00  0.00    +0.211 HD
ENDBRANCH  16  17
ENDBRANCH   9  16
TORSDOF 3
ENDMDL
MODEL 2
REMARK VINA RESULT:      -7.6      1.983      3.673
REMARK  Name = 806138
REMARK  3 active torsions:
REMARK  status: ('A' for Active; 'I' for Inactive)
REMARK    1  A    between atoms: C_8  and  O_14
REMARK    2  A    between atoms: C_9  and  C_16
REMARK    3  A    between atoms: C_16  and  O_17
REMARK                            x       y       z     vdW  Elec       q    Type
REMARK                         _______ _______ _______ _____ _____    ______ ____
ROOT
ATOM      1  O   UNL     1      35.684 -24.640 -12.891  0.00  0.00    -0.332 OA
ATOM      2  O   UNL     1      38.435 -24.112 -14.456  0.00  0.00    -0.437 OA
ATOM      3  O   UNL     1      37.012 -21.007 -17.590  0.00  0.00    -0.209 OA
ATOM      4  N   UNL     1      36.292 -24.045 -15.114  0.00  0.00    -0.204 N 
ATOM      5  N   UNL     1      37.848 -22.498 -16.038  0.00  0.00    -0.281 NA
ATOM      6  C   UNL     1      37.781 -25.260 -13.870  0.00  0.00    +0.246 C 
ATOM      7  C   UNL     1      36.285 -25.077 -14.117  0.00  0.00    +0.244 C 
ATOM      8  C   UNL     1      37.915 -25.257 -12.365  0.00  0.00    +0.185 C 
ATOM      9  C   UNL     1      36.693 -24.488 -11.878  0.00  0.00    +0.177 C 
ATOM     10  C   UNL     1      37.529 -23.487 -15.266  0.00  0.00    +0.359 C 
ATOM     11  C   UNL     1      35.252 -23.531 -15.832  0.00  0.00    +0.086 C 
ATOM     12  C   UNL     1      35.445 -22.510 -16.676  0.00  0.00    +0.123 C 
ATOM     13  C   UNL     1      36.833 -21.939 -16.810  0.00  0.00    +0.210 C 
ENDROOT
BRANCH   8  14
ATOM     14  O   UNL     1      37.832 -26.602 -11.893  0.00  0.00    -0.378 OA
ATOM     15  H   UNL     1      38.674 -27.054 -12.056  0.00  0.00    +0.211 HD
ENDBRANCH   8  14
BRANCH   9  16
ATOM     16  C   UNL     1      36.954 -23.002 -11.669  0.00  0.00    +0.169 C 
BRANCH  16  17
ATOM     17  O   UNL     1      38.355 -22.786 -11.606  0.00  0.00    -0.379 OA
ATOM     18  H   UNL     1      38.791 -23.288 -12.311  0.00  0.00    +0.211 HD
ENDBRANCH  16  17
ENDBRANCH   9  16
TORSDOF 3
ENDMDL
MODEL 3
REMARK VINA RESULT:      -7.4      2.460      3.101
REMARK  Name = 806138
REMARK  3 active torsions:
REMARK  status: ('A' for Active; 'I' for Inactive)
REMARK    1  A    between atoms: C_8  and  O_14
REMARK    2  A    between atoms: C_9  and  C_16
REMARK    3  A    between atoms: C_16  and  O_17
REMARK                            x       y       z     vdW  Elec       q    Type
REMARK                         _______ _______ _______ _____ _____    ______ ____
ROOT
ATOM      1  O   UNL     1      38.201 -24.290 -14.160  0.00  0.00    -0.332 OA
ATOM      2  O   UNL     1      35.034 -24.016 -14.598  0.00  0.00    -0.437 OA
ATOM      3  O   UNL     1      34.954 -22.066 -18.803  0.00  0.00    -0.209 OA
ATOM      4  N   UNL     1      36.766 -22.793 -15.329  0.00  0.00    -0.204 N 
ATOM      5  N   UNL     1      34.869 -23.091 -16.736  0.00  0.00    -0.281 NA
ATOM      6  C   UNL     1      35.942 -23.867 -13.483  0.00  0.00    +0.246 C 
ATOM      7  C   UNL     1      37.221 -23.250 -14.047  0.00  0.00    +0.244 C 
ATOM      8  C   UNL     1      36.379 -25.212 -12.951  0.00  0.00    +0.185 C 
ATOM      9  C   UNL     1      37.634 -25.545 -13.748  0.00  0.00    +0.177 C 
ATOM     10  C   UNL     1      35.524 -23.272 -15.634  0.00  0.00    +0.359 C 
ATOM     11  C   UNL     1      37.423 -22.042 -16.260  0.00  0.00    +0.086 C 
ATOM     12  C   UNL     1      36.855 -21.772 -17.442  0.00  0.00    +0.123 C 
ATOM     13  C   UNL     1      35.479 -22.319 -17.721  0.00  0.00    +0.210 C 
ENDROOT
BRANCH   8  14
ATOM     14  O   UNL     1      36.731 -25.069 -11.574  0.00  0.00    -0.378 OA
ATOM     15  H   UNL     1      36.905 -24.135 -11.380  0.00  0.00    +0.211 HD
ENDBRANCH   8  14
BRANCH   9  16
ATOM     16  C   UNL     1      37.362 -26.388 -14.987  0.00  0.00    +0.169 C 
BRANCH  16  17
ATOM     17  O   UNL     1      36.018 -26.840 -14.948  0.00  0.00    -0.379 OA
ATOM     18  H   UNL     1      35.523 -26.446 -15.684  0.00  0.00    +0.211 HD
ENDBRANCH  16  17
ENDBRANCH   9  16
TORSDOF 3
ENDMDL
MODEL 4
REMARK VINA RESULT:      -7.4      1.709      2.018
REMARK  Name = 806138
REMARK  3 active torsions:
REMARK  status: ('A' for Active; 'I' for Inactive)
REMARK    1  A    between atoms: C_8  and  O_14
REMARK    2  A    between atoms: C_9  and  C_16
REMARK    3  A    between atoms: C_16  and  O_17
REMARK                            x       y       z     vdW  Elec       q    Type
REMARK                         _______ _______ _______ _____ _____    ______ ____
ROOT
ATOM      1  O   UNL     1      36.018 -24.072 -15.811  0.00  0.00    -0.332 OA
ATOM      2  O   UNL     1      34.726 -24.400 -12.892  0.00  0.00    -0.437 OA
ATOM      3  O   UNL     1      30.260 -24.905 -14.024  0.00  0.00    -0.209 OA
ATOM      4  N   UNL     1      33.925 -23.549 -14.805  0.00  0.00    -0.204 N 
ATOM      5  N   UNL     1      32.459 -24.727 -13.345  0.00  0.00    -0.281 NA
ATOM      6  C   UNL     1      35.785 -23.605 -13.472  0.00  0.00    +0.246 C 
ATOM      7  C   UNL     1      35.323 -23.232 -14.880  0.00  0.00    +0.244 C 
ATOM      8  C   UNL     1      37.030 -24.431 -13.694  0.00  0.00    +0.185 C 
ATOM      9  C   UNL     1      36.868 -24.989 -15.102  0.00  0.00    +0.177 C 
ATOM     10  C   UNL     1      33.616 -24.246 -13.672  0.00  0.00    +0.359 C 
ATOM     11  C   UNL     1      32.937 -23.317 -15.718  0.00  0.00    +0.086 C 
ATOM     12  C   UNL     1      31.691 -23.754 -15.500  0.00  0.00    +0.123 C 
ATOM     13  C   UNL     1      31.405 -24.510 -14.228  0.00  0.00    +0.210 C 
ENDROOT
BRANCH   8  14
ATOM     14  O   UNL     1      38.166 -23.565 -13.669  0.00  0.00    -0.378 OA
ATOM     15  H   UNL     1      37.869 -22.642 -13.681  0.00  0.00    +0.211 HD
ENDBRANCH   8  14
BRANCH   9  16
ATOM     16  C   UNL     1      36.230 -26.372 -15.138  0.00  0.00    +0.169 C 
BRANCH  16  17
ATOM     17  O   UNL     1      36.843 -27.134 -16.166  0.00  0.00    -0.379 OA
ATOM     18  H   UNL     1      37.746 -27.369 -15.899  0.00  0.00    +0.211 HD
ENDBRANCH  16  17
ENDBRANCH   9  16
TORSDOF 3
ENDMDL
MODEL 5
REMARK VINA RESULT:      -7.1      8.198     10.075
REMARK  Name = 806138
REMARK  3 active torsions:
REMARK  status: ('A' for Active; 'I' for Inactive)
REMARK    1  A    between atoms: C_8  and  O_14
REMARK    2  A    between atoms: C_9  and  C_16
REMARK    3  A    between atoms: C_16  and  O_17
REMARK                            x       y       z     vdW  Elec       q    Type
REMARK                         _______ _______ _______ _____ _____    ______ ____
ROOT
ATOM      1  O   UNL     1      36.246 -18.140 -21.345  0.00  0.00    -0.332 OA
ATOM      2  O   UNL     1      33.388 -19.356 -22.152  0.00  0.00    -0.437 OA
ATOM      3  O   UNL     1      32.650 -22.177 -18.549  0.00  0.00    -0.209 OA
ATOM      4  N   UNL     1      35.107 -20.199 -20.985  0.00  0.00    -0.204 N 
ATOM      5  N   UNL     1      32.880 -20.761 -20.358  0.00  0.00    -0.281 NA
ATOM      6  C   UNL     1      34.595 -18.989 -22.859  0.00  0.00    +0.246 C 
ATOM      7  C   UNL     1      35.760 -19.350 -21.940  0.00  0.00    +0.244 C 
ATOM      8  C   UNL     1      34.699 -17.491 -23.023  0.00  0.00    +0.185 C 
ATOM      9  C   UNL     1      35.451 -17.025 -21.783  0.00  0.00    +0.177 C 
ATOM     10  C   UNL     1      33.748 -20.158 -21.107  0.00  0.00    +0.359 C 
ATOM     11  C   UNL     1      35.650 -20.939 -19.974  0.00  0.00    +0.086 C 
ATOM     12  C   UNL     1      34.865 -21.620 -19.131  0.00  0.00    +0.123 C 
ATOM     13  C   UNL     1      33.371 -21.546 -19.318  0.00  0.00    +0.210 C 
ENDROOT
BRANCH   8  14
ATOM     14  O   UNL     1      35.492 -17.209 -24.177  0.00  0.00    -0.378 OA
ATOM     15  H   UNL     1      35.370 -17.913 -24.832  0.00  0.00    +0.211 HD
ENDBRANCH   8  14
BRANCH   9  16
ATOM     16  C   UNL     1      34.538 -16.600 -20.642  0.00  0.00    +0.169 C 
BRANCH  16  17
ATOM     17  O   UNL     1      34.885 -15.284 -20.241  0.00  0.00    -0.379 OA
ATOM     18  H   UNL     1      35.341 -15.317 -19.385  0.00  0.00    +0.211 HD
ENDBRANCH  16  17
ENDBRANCH   9  16
TORSDOF 3
ENDMDL
MODEL 6
REMARK VINA RESULT:      -7.1      3.689      5.417
REMARK  Name = 806138
REMARK  3 active torsions:
REMARK  status: ('A' for Active; 'I' for Inactive)
REMARK    1  A    between atoms: C_8  and  O_14
REMARK    2  A    between atoms: C_9  and  C_16
REMARK    3  A    between atoms: C_16  and  O_17
REMARK                            x       y       z     vdW  Elec       q    Type
REMARK                         _______ _______ _______ _____ _____    ______ ____
ROOT
ATOM      1  O   UNL     1      32.348 -22.592 -14.332  0.00  0.00    -0.332 OA
ATOM      2  O   UNL     1      30.950 -25.417 -14.932  0.00  0.00    -0.437 OA
ATOM      3  O   UNL     1      27.452 -24.041 -17.645  0.00  0.00    -0.209 OA
ATOM      4  N   UNL     1      30.131 -23.335 -14.780  0.00  0.00    -0.204 N 
ATOM      5  N   UNL     1      29.190 -24.850 -16.357  0.00  0.00    -0.281 NA
ATOM      6  C   UNL     1      31.588 -24.799 -13.791  0.00  0.00    +0.246 C 
ATOM      7  C   UNL     1      31.215 -23.318 -13.839  0.00  0.00    +0.244 C 
ATOM      8  C   UNL     1      33.092 -24.810 -13.932  0.00  0.00    +0.185 C 
ATOM      9  C   UNL     1      33.415 -23.503 -14.645  0.00  0.00    +0.177 C 
ATOM     10  C   UNL     1      30.023 -24.539 -15.416  0.00  0.00    +0.359 C 
ATOM     11  C   UNL     1      29.295 -22.323 -15.152  0.00  0.00    +0.086 C 
ATOM     12  C   UNL     1      28.378 -22.513 -16.109  0.00  0.00    +0.123 C 
ATOM     13  C   UNL     1      28.297 -23.864 -16.771  0.00  0.00    +0.210 C 
ENDROOT
BRANCH   8  14
ATOM     14  O   UNL     1      33.676 -24.782 -12.629  0.00  0.00    -0.378 OA
ATOM     15  H   UNL     1      34.568 -25.160 -12.668  0.00  0.00    +0.211 HD
ENDBRANCH   8  14
BRANCH   9  16
ATOM     16  C   UNL     1      33.508 -23.643 -16.158  0.00  0.00    +0.169 C 
BRANCH  16  17
ATOM     17  O   UNL     1      34.876 -23.671 -16.534  0.00  0.00    -0.379 OA
ATOM     18  H   UNL     1      35.304 -22.844 -16.261  0.00  0.00    +0.211 HD
ENDBRANCH  16  17
ENDBRANCH   9  16
TORSDOF 3
ENDMDL
MODEL 7
REMARK VINA RESULT:      -7.0      9.469     11.021
REMARK  Name = 806138
REMARK  3 active torsions:
REMARK  status: ('A' for Active; 'I' for Inactive)
REMARK    1  A    between atoms: C_8  and  O_14
REMARK    2  A    between atoms: C_9  and  C_16
REMARK    3  A    between atoms: C_16  and  O_17
REMARK                            x       y       z     vdW  Elec       q    Type
REMARK                         _______ _______ _______ _____ _____    ______ ____
ROOT
ATOM      1  O   UNL     1      34.604 -19.607 -22.642  0.00  0.00    -0.332 OA
ATOM      2  O   UNL     1      35.468 -17.345 -20.536  0.00  0.00    -0.437 OA
ATOM      3  O   UNL     1      33.610 -13.603 -22.545  0.00  0.00    -0.209 OA
ATOM      4  N   UNL     1      35.120 -17.285 -22.751  0.00  0.00    -0.204 N 
ATOM      5  N   UNL     1      34.523 -15.402 -21.422  0.00  0.00    -0.281 NA
ATOM      6  C   UNL     1      36.079 -18.533 -21.089  0.00  0.00    +0.246 C 
ATOM      7  C   UNL     1      35.631 -18.611 -22.547  0.00  0.00    +0.244 C 
ATOM      8  C   UNL     1      35.512 -19.783 -20.457  0.00  0.00    +0.185 C 
ATOM      9  C   UNL     1      34.327 -20.151 -21.340  0.00  0.00    +0.177 C 
ATOM     10  C   UNL     1      35.006 -16.593 -21.579  0.00  0.00    +0.359 C 
ATOM     11  C   UNL     1      34.684 -16.696 -23.902  0.00  0.00    +0.086 C 
ATOM     12  C   UNL     1      34.169 -15.460 -23.883  0.00  0.00    +0.123 C 
ATOM     13  C   UNL     1      34.076 -14.739 -22.562  0.00  0.00    +0.210 C 
ENDROOT
BRANCH   8  14
ATOM     14  O   UNL     1      36.489 -20.822 -20.538  0.00  0.00    -0.378 OA
ATOM     15  H   UNL     1      36.222 -21.561 -19.970  0.00  0.00    +0.211 HD
ENDBRANCH   8  14
BRANCH   9  16
ATOM     16  C   UNL     1      33.002 -19.586 -20.847  0.00  0.00    +0.169 C 
BRANCH  16  17
ATOM     17  O   UNL     1      32.516 -20.405 -19.796  0.00  0.00    -0.379 OA
ATOM     18  H   UNL     1      33.264 -20.795 -19.317  0.00  0.00    +0.211 HD
ENDBRANCH  16  17
ENDBRANCH   9  16
TORSDOF 3
ENDMDL
MODEL 8
REMARK VINA RESULT:      -7.0      2.344      4.790
REMARK  Name = 806138
REMARK  3 active torsions:
REMARK  status: ('A' for Active; 'I' for Inactive)
REMARK    1  A    between atoms: C_8  and  O_14
REMARK    2  A    between atoms: C_9  and  C_16
REMARK    3  A    between atoms: C_16  and  O_17
REMARK                            x       y       z     vdW  Elec       q    Type
REMARK                         _______ _______ _______ _____ _____    ______ ____
ROOT
ATOM      1  O   UNL     1      36.664 -22.800 -13.504  0.00  0.00    -0.332 OA
ATOM      2  O   UNL     1      36.736 -26.005 -13.352  0.00  0.00    -0.437 OA
ATOM      3  O   UNL     1      41.119 -26.788 -14.641  0.00  0.00    -0.209 OA
ATOM      4  N   UNL     1      37.832 -24.534 -14.642  0.00  0.00    -0.204 N 
ATOM      5  N   UNL     1      38.940 -26.517 -13.928  0.00  0.00    -0.281 NA
ATOM      6  C   UNL     1      35.772 -25.009 -13.764  0.00  0.00    +0.246 C 
ATOM      7  C   UNL     1      36.568 -23.889 -14.431  0.00  0.00    +0.244 C 
ATOM      8  C   UNL     1      35.125 -24.347 -12.570  0.00  0.00    +0.185 C 
ATOM      9  C   UNL     1      36.021 -23.152 -12.267  0.00  0.00    +0.177 C 
ATOM     10  C   UNL     1      37.914 -25.729 -13.986  0.00  0.00    +0.359 C 
ATOM     11  C   UNL     1      38.930 -24.084 -15.316  0.00  0.00    +0.086 C 
ATOM     12  C   UNL     1      40.057 -24.806 -15.345  0.00  0.00    +0.123 C 
ATOM     13  C   UNL     1      40.087 -26.122 -14.610  0.00  0.00    +0.210 C 
ENDROOT
BRANCH   8  14
ATOM     14  O   UNL     1      33.834 -23.871 -12.952  0.00  0.00    -0.378 OA
ATOM     15  H   UNL     1      33.781 -23.821 -13.919  0.00  0.00    +0.211 HD
ENDBRANCH   8  14
BRANCH   9  16
ATOM     16  C   UNL     1      37.093 -23.445 -11.226  0.00  0.00    +0.169 C 
BRANCH  16  17
ATOM     17  O   UNL     1      38.292 -22.786 -11.603  0.00  0.00    -0.379 OA
ATOM     18  H   UNL     1      38.130 -22.249 -12.395  0.00  0.00    +0.211 HD
ENDBRANCH  16  17
ENDBRANCH   9  16
TORSDOF 3
ENDMDL
MODEL 9
REMARK VINA RESULT:      -6.7      2.523      3.579
REMARK  Name = 806138
REMARK  3 active torsions:
REMARK  status: ('A' for Active; 'I' for Inactive)
REMARK    1  A    between atoms: C_8  and  O_14
REMARK    2  A    between atoms: C_9  and  C_16
REMARK    3  A    between atoms: C_16  and  O_17
REMARK                            x       y       z     vdW  Elec       q    Type
REMARK                         _______ _______ _______ _____ _____    ______ ____
ROOT
ATOM      1  O   UNL     1      37.343 -25.042 -15.423  0.00  0.00    -0.332 OA
ATOM      2  O   UNL     1      38.764 -25.513 -12.584  0.00  0.00    -0.437 OA
ATOM      3  O   UNL     1      35.277 -24.419  -9.733  0.00  0.00    -0.209 OA
ATOM      4  N   UNL     1      37.140 -24.112 -13.242  0.00  0.00    -0.204 N 
ATOM      5  N   UNL     1      37.063 -25.046 -11.053  0.00  0.00    -0.281 NA
ATOM      6  C   UNL     1      39.164 -24.979 -13.867  0.00  0.00    +0.246 C 
ATOM      7  C   UNL     1      37.956 -24.225 -14.417  0.00  0.00    +0.244 C 
ATOM      8  C   UNL     1      39.402 -26.085 -14.869  0.00  0.00    +0.185 C 
ATOM      9  C   UNL     1      38.047 -26.291 -15.535  0.00  0.00    +0.177 C 
ATOM     10  C   UNL     1      37.608 -24.885 -12.217  0.00  0.00    +0.359 C 
ATOM     11  C   UNL     1      35.976 -23.424 -13.062  0.00  0.00    +0.086 C 
ATOM     12  C   UNL     1      35.314 -23.496 -11.900  0.00  0.00    +0.123 C 
ATOM     13  C   UNL     1      35.880 -24.357 -10.801  0.00  0.00    +0.210 C 
ENDROOT
BRANCH   8  14
ATOM     14  O   UNL     1      40.333 -25.625 -15.849  0.00  0.00    -0.378 OA
ATOM     15  H   UNL     1      40.075 -25.960 -16.722  0.00  0.00    +0.211 HD
ENDBRANCH   8  14
BRANCH   9  16
ATOM     16  C   UNL     1      37.209 -27.383 -14.883  0.00  0.00    +0.169 C 
BRANCH  16  17
ATOM     17  O   UNL     1      35.837 -27.040 -15.001  0.00  0.00    -0.379 OA
ATOM     18  H   UNL     1      35.557 -27.143 -15.924  0.00  0.00    +0.211 HD
ENDBRANCH  16  17
ENDBRANCH   9  16
TORSDOF 3
ENDMDL
