MODEL 1
REMARK VINA RESULT:      -7.4      0.000      0.000
REMARK  Name = 8275
REMARK  4 active torsions:
REMARK  status: ('A' for Active; 'I' for Inactive)
REMARK    1  A    between atoms: C_6  and  C_12
REMARK    2  A    between atoms: C_6  and  C_16
REMARK    3  A    between atoms: C_12  and  C_14
REMARK    4  A    between atoms: C_16  and  C_17
REMARK                            x       y       z     vdW  Elec       q    Type
REMARK                         _______ _______ _______ _____ _____    ______ ____
ROOT
ATOM      1  O   UNL     1      38.267 -22.414 -12.113  0.00  0.00    -0.274 OA
ATOM      2  O   UNL     1      34.546 -23.893 -14.566  0.00  0.00    -0.274 OA
ATOM      3  O   UNL     1      35.214 -25.287 -10.246  0.00  0.00    -0.252 OA
ATOM      4  N   UNL     1      36.793 -23.926 -11.216  0.00  0.00    -0.239 N 
ATOM      5  N   UNL     1      34.935 -24.665 -12.442  0.00  0.00    -0.239 N 
ATOM      6  C   UNL     1      36.760 -23.545 -13.640  0.00  0.00    +0.142 C 
ATOM      7  C   UNL     1      37.340 -23.209 -12.270  0.00  0.00    +0.237 C 
ATOM      8  C   UNL     1      35.309 -24.017 -13.609  0.00  0.00    +0.237 C 
ATOM      9  C   UNL     1      35.628 -24.683 -11.237  0.00  0.00    +0.312 C 
ATOM     10  H   UNL     1      37.284 -23.897 -10.363  0.00  0.00    +0.159 HD
ATOM     11  H   UNL     1      34.089 -25.168 -12.470  0.00  0.00    +0.159 HD
ENDROOT
BRANCH   6  12
ATOM     12  C   UNL     1      37.597 -24.702 -14.212  0.00  0.00    +0.017 C 
ATOM     13  C   UNL     1      36.694 -25.905 -14.476  0.00  0.00    +0.001 C 
BRANCH  12  14
ATOM     14  C   UNL     1      38.752 -25.030 -13.252  0.00  0.00    +0.001 C 
ATOM     15  C   UNL     1      40.028 -25.454 -13.963  0.00  0.00    +0.000 C 
ENDBRANCH  12  14
ENDBRANCH   6  12
BRANCH   6  16
ATOM     16  C   UNL     1      36.883 -22.324 -14.563  0.00  0.00    +0.043 C 
BRANCH  16  17
ATOM     17  C   UNL     1      37.421 -22.721 -15.897  0.00  0.00    -0.025 C 
ATOM     18  C   UNL     1      37.143 -22.070 -17.033  0.00  0.00    -0.005 C 
ENDBRANCH  16  17
ENDBRANCH   6  16
TORSDOF 4
ENDMDL
MODEL 2
REMARK VINA RESULT:      -7.4      1.213      3.617
REMARK  Name = 8275
REMARK  4 active torsions:
REMARK  status: ('A' for Active; 'I' for Inactive)
REMARK    1  A    between atoms: C_6  and  C_12
REMARK    2  A    between atoms: C_6  and  C_16
REMARK    3  A    between atoms: C_12  and  C_14
REMARK    4  A    between atoms: C_16  and  C_17
REMARK                            x       y       z     vdW  Elec       q    Type
REMARK                         _______ _______ _______ _____ _____    ______ ____
ROOT
ATOM      1  O   UNL     1      36.246 -25.898 -15.420  0.00  0.00    -0.274 OA
ATOM      2  O   UNL     1      39.078 -23.670 -12.411  0.00  0.00    -0.274 OA
ATOM      3  O   UNL     1      34.851 -24.939 -11.155  0.00  0.00    -0.252 OA
ATOM      4  N   UNL     1      35.516 -25.330 -13.321  0.00  0.00    -0.239 N 
ATOM      5  N   UNL     1      36.931 -24.217 -11.818  0.00  0.00    -0.239 N 
ATOM      6  C   UNL     1      37.543 -24.258 -14.194  0.00  0.00    +0.142 C 
ATOM      7  C   UNL     1      36.406 -25.256 -14.383  0.00  0.00    +0.237 C 
ATOM      8  C   UNL     1      37.952 -24.039 -12.740  0.00  0.00    +0.237 C 
ATOM      9  C   UNL     1      35.700 -24.821 -12.041  0.00  0.00    +0.312 C 
ATOM     10  H   UNL     1      34.664 -25.792 -13.493  0.00  0.00    +0.159 HD
ATOM     11  H   UNL     1      37.096 -23.878 -10.909  0.00  0.00    +0.159 HD
ENDROOT
BRANCH   6  12
ATOM     12  C   UNL     1      37.048 -22.903 -14.731  0.00  0.00    +0.017 C 
ATOM     13  C   UNL     1      35.527 -22.934 -14.873  0.00  0.00    +0.001 C 
BRANCH  12  14
ATOM     14  C   UNL     1      37.758 -22.581 -16.055  0.00  0.00    +0.001 C 
ATOM     15  C   UNL     1      36.857 -21.899 -17.074  0.00  0.00    +0.000 C 
ENDBRANCH  12  14
ENDBRANCH   6  12
BRANCH   6  16
ATOM     16  C   UNL     1      38.764 -24.711 -15.007  0.00  0.00    +0.043 C 
BRANCH  16  17
ATOM     17  C   UNL     1      39.324 -25.981 -14.459  0.00  0.00    -0.025 C 
ATOM     18  C   UNL     1      40.632 -26.199 -14.280  0.00  0.00    -0.005 C 
ENDBRANCH  16  17
ENDBRANCH   6  16
TORSDOF 4
ENDMDL
MODEL 3
REMARK VINA RESULT:      -7.2     16.715     18.637
REMARK  Name = 8275
REMARK  4 active torsions:
REMARK  status: ('A' for Active; 'I' for Inactive)
REMARK    1  A    between atoms: C_6  and  C_12
REMARK    2  A    between atoms: C_6  and  C_16
REMARK    3  A    between atoms: C_12  and  C_14
REMARK    4  A    between atoms: C_16  and  C_17
REMARK                            x       y       z     vdW  Elec       q    Type
REMARK                         _______ _______ _______ _____ _____    ______ ____
ROOT
ATOM      1  O   UNL     1      33.030  -7.540 -19.948  0.00  0.00    -0.274 OA
ATOM      2  O   UNL     1      31.136  -8.172 -24.197  0.00  0.00    -0.274 OA
ATOM      3  O   UNL     1      30.937 -11.479 -21.023  0.00  0.00    -0.252 OA
ATOM      4  N   UNL     1      32.070  -9.543 -20.521  0.00  0.00    -0.239 N 
ATOM      5  N   UNL     1      31.124  -9.859 -22.644  0.00  0.00    -0.239 N 
ATOM      6  C   UNL     1      32.635  -7.955 -22.304  0.00  0.00    +0.142 C 
ATOM      7  C   UNL     1      32.586  -8.290 -20.817  0.00  0.00    +0.237 C 
ATOM      8  C   UNL     1      31.552  -8.636 -23.137  0.00  0.00    +0.237 C 
ATOM      9  C   UNL     1      31.362 -10.379 -21.377  0.00  0.00    +0.312 C 
ATOM     10  H   UNL     1      32.222  -9.876 -19.607  0.00  0.00    +0.159 HD
ATOM     11  H   UNL     1      30.597 -10.420 -23.257  0.00  0.00    +0.159 HD
ENDROOT
BRANCH   6  12
ATOM     12  C   UNL     1      33.991  -8.455 -22.834  0.00  0.00    +0.017 C 
ATOM     13  C   UNL     1      34.730  -7.304 -23.512  0.00  0.00    +0.001 C 
BRANCH  12  14
ATOM     14  C   UNL     1      33.770  -9.651 -23.773  0.00  0.00    +0.001 C 
ATOM     15  C   UNL     1      34.949  -9.920 -24.697  0.00  0.00    +0.000 C 
ENDBRANCH  12  14
ENDBRANCH   6  12
BRANCH   6  16
ATOM     16  C   UNL     1      32.545  -6.434 -22.491  0.00  0.00    +0.043 C 
BRANCH  16  17
ATOM     17  C   UNL     1      31.278  -5.902 -21.911  0.00  0.00    -0.025 C 
ATOM     18  C   UNL     1      30.666  -4.797 -22.351  0.00  0.00    -0.005 C 
ENDBRANCH  16  17
ENDBRANCH   6  16
TORSDOF 4
ENDMDL
MODEL 4
REMARK VINA RESULT:      -7.2      2.336      4.210
REMARK  Name = 8275
REMARK  4 active torsions:
REMARK  status: ('A' for Active; 'I' for Inactive)
REMARK    1  A    between atoms: C_6  and  C_12
REMARK    2  A    between atoms: C_6  and  C_16
REMARK    3  A    between atoms: C_12  and  C_14
REMARK    4  A    between atoms: C_16  and  C_17
REMARK                            x       y       z     vdW  Elec       q    Type
REMARK                         _______ _______ _______ _____ _____    ______ ____
ROOT
ATOM      1  O   UNL     1      39.050 -24.190 -14.512  0.00  0.00    -0.274 OA
ATOM      2  O   UNL     1      34.432 -24.651 -13.801  0.00  0.00    -0.274 OA
ATOM      3  O   UNL     1      36.760 -27.785 -16.212  0.00  0.00    -0.252 OA
ATOM      4  N   UNL     1      37.886 -25.933 -15.443  0.00  0.00    -0.239 N 
ATOM      5  N   UNL     1      35.579 -26.163 -15.089  0.00  0.00    -0.239 N 
ATOM      6  C   UNL     1      36.634 -24.006 -14.586  0.00  0.00    +0.142 C 
ATOM      7  C   UNL     1      37.971 -24.703 -14.808  0.00  0.00    +0.237 C 
ATOM      8  C   UNL     1      35.450 -24.954 -14.421  0.00  0.00    +0.237 C 
ATOM      9  C   UNL     1      36.740 -26.695 -15.637  0.00  0.00    +0.312 C 
ATOM     10  H   UNL     1      38.727 -26.306 -15.794  0.00  0.00    +0.159 HD
ATOM     11  H   UNL     1      34.760 -26.701 -15.186  0.00  0.00    +0.159 HD
ENDROOT
BRANCH   6  12
ATOM     12  C   UNL     1      36.356 -23.153 -15.837  0.00  0.00    +0.017 C 
ATOM     13  C   UNL     1      37.322 -21.970 -15.875  0.00  0.00    +0.001 C 
BRANCH  12  14
ATOM     14  C   UNL     1      34.884 -22.714 -15.848  0.00  0.00    +0.001 C 
ATOM     15  C   UNL     1      34.162 -23.052 -17.144  0.00  0.00    +0.000 C 
ENDBRANCH  12  14
ENDBRANCH   6  12
BRANCH   6  16
ATOM     16  C   UNL     1      36.730 -23.089 -13.358  0.00  0.00    +0.043 C 
BRANCH  16  17
ATOM     17  C   UNL     1      37.082 -23.872 -12.138  0.00  0.00    -0.025 C 
ATOM     18  C   UNL     1      36.373 -23.838 -11.004  0.00  0.00    -0.005 C 
ENDBRANCH  16  17
ENDBRANCH   6  16
TORSDOF 4
ENDMDL
MODEL 5
REMARK VINA RESULT:      -6.9      2.623      4.504
REMARK  Name = 8275
REMARK  4 active torsions:
REMARK  status: ('A' for Active; 'I' for Inactive)
REMARK    1  A    between atoms: C_6  and  C_12
REMARK    2  A    between atoms: C_6  and  C_16
REMARK    3  A    between atoms: C_12  and  C_14
REMARK    4  A    between atoms: C_16  and  C_17
REMARK                            x       y       z     vdW  Elec       q    Type
REMARK                         _______ _______ _______ _____ _____    ______ ____
ROOT
ATOM      1  O   UNL     1      37.625 -22.592 -15.121  0.00  0.00    -0.274 OA
ATOM      2  O   UNL     1      38.210 -25.964 -11.907  0.00  0.00    -0.274 OA
ATOM      3  O   UNL     1      40.622 -25.997 -15.810  0.00  0.00    -0.252 OA
ATOM      4  N   UNL     1      39.050 -24.348 -15.506  0.00  0.00    -0.239 N 
ATOM      5  N   UNL     1      39.342 -26.032 -13.901  0.00  0.00    -0.239 N 
ATOM      6  C   UNL     1      37.403 -24.542 -13.698  0.00  0.00    +0.142 C 
ATOM      7  C   UNL     1      38.031 -23.712 -14.812  0.00  0.00    +0.237 C 
ATOM      8  C   UNL     1      38.350 -25.553 -13.058  0.00  0.00    +0.237 C 
ATOM      9  C   UNL     1      39.722 -25.504 -15.129  0.00  0.00    +0.312 C 
ATOM     10  H   UNL     1      39.326 -23.936 -16.357  0.00  0.00    +0.159 HD
ATOM     11  H   UNL     1      39.827 -26.833 -13.598  0.00  0.00    +0.159 HD
ENDROOT
BRANCH   6  12
ATOM     12  C   UNL     1      36.249 -25.342 -14.327  0.00  0.00    +0.017 C 
ATOM     13  C   UNL     1      36.748 -26.728 -14.731  0.00  0.00    +0.001 C 
BRANCH  12  14
ATOM     14  C   UNL     1      35.661 -24.557 -15.511  0.00  0.00    +0.001 C 
ATOM     15  C   UNL     1      34.259 -24.028 -15.248  0.00  0.00    +0.000 C 
ENDBRANCH  12  14
ENDBRANCH   6  12
BRANCH   6  16
ATOM     16  C   UNL     1      36.843 -23.608 -12.615  0.00  0.00    +0.043 C 
BRANCH  16  17
ATOM     17  C   UNL     1      35.612 -24.187 -12.001  0.00  0.00    -0.025 C 
ATOM     18  C   UNL     1      35.469 -24.402 -10.688  0.00  0.00    -0.005 C 
ENDBRANCH  16  17
ENDBRANCH   6  16
TORSDOF 4
ENDMDL
MODEL 6
REMARK VINA RESULT:      -6.8     17.380     19.704
REMARK  Name = 8275
REMARK  4 active torsions:
REMARK  status: ('A' for Active; 'I' for Inactive)
REMARK    1  A    between atoms: C_6  and  C_12
REMARK    2  A    between atoms: C_6  and  C_16
REMARK    3  A    between atoms: C_12  and  C_14
REMARK    4  A    between atoms: C_16  and  C_17
REMARK                            x       y       z     vdW  Elec       q    Type
REMARK                         _______ _______ _______ _____ _____    ______ ____
ROOT
ATOM      1  O   UNL     1      30.811  -8.458 -23.627  0.00  0.00    -0.274 OA
ATOM      2  O   UNL     1      32.974  -6.901 -19.762  0.00  0.00    -0.274 OA
ATOM      3  O   UNL     1      29.997  -4.238 -22.020  0.00  0.00    -0.252 OA
ATOM      4  N   UNL     1      30.481  -6.315 -22.878  0.00  0.00    -0.239 N 
ATOM      5  N   UNL     1      31.561  -5.537 -20.947  0.00  0.00    -0.239 N 
ATOM      6  C   UNL     1      32.397  -7.582 -22.016  0.00  0.00    +0.142 C 
ATOM      7  C   UNL     1      31.155  -7.527 -22.899  0.00  0.00    +0.237 C 
ATOM      8  C   UNL     1      32.336  -6.677 -20.789  0.00  0.00    +0.237 C 
ATOM      9  C   UNL     1      30.647  -5.283 -21.962  0.00  0.00    +0.312 C 
ATOM     10  H   UNL     1      29.813  -6.171 -23.588  0.00  0.00    +0.159 HD
ATOM     11  H   UNL     1      31.672  -4.833 -20.269  0.00  0.00    +0.159 HD
ENDROOT
BRANCH   6  12
ATOM     12  C   UNL     1      33.581  -7.098 -22.873  0.00  0.00    +0.017 C 
ATOM     13  C   UNL     1      33.062  -6.566 -24.208  0.00  0.00    +0.001 C 
BRANCH  12  14
ATOM     14  C   UNL     1      34.595  -8.240 -23.046  0.00  0.00    +0.001 C 
ATOM     15  C   UNL     1      34.738  -8.708 -24.487  0.00  0.00    +0.000 C 
ENDBRANCH  12  14
ENDBRANCH   6  12
BRANCH   6  16
ATOM     16  C   UNL     1      32.650  -9.030 -21.573  0.00  0.00    +0.043 C 
BRANCH  16  17
ATOM     17  C   UNL     1      31.579  -9.493 -20.643  0.00  0.00    -0.025 C 
ATOM     18  C   UNL     1      31.814 -10.221 -19.545  0.00  0.00    -0.005 C 
ENDBRANCH  16  17
ENDBRANCH   6  16
TORSDOF 4
ENDMDL
MODEL 7
REMARK VINA RESULT:      -6.8      2.136      3.640
REMARK  Name = 8275
REMARK  4 active torsions:
REMARK  status: ('A' for Active; 'I' for Inactive)
REMARK    1  A    between atoms: C_6  and  C_12
REMARK    2  A    between atoms: C_6  and  C_16
REMARK    3  A    between atoms: C_12  and  C_14
REMARK    4  A    between atoms: C_16  and  C_17
REMARK                            x       y       z     vdW  Elec       q    Type
REMARK                         _______ _______ _______ _____ _____    ______ ____
ROOT
ATOM      1  O   UNL     1      37.866 -22.468 -15.123  0.00  0.00    -0.274 OA
ATOM      2  O   UNL     1      37.403 -27.140 -15.109  0.00  0.00    -0.274 OA
ATOM      3  O   UNL     1      33.721 -24.415 -14.836  0.00  0.00    -0.252 OA
ATOM      4  N   UNL     1      35.804 -23.444 -14.880  0.00  0.00    -0.239 N 
ATOM      5  N   UNL     1      35.573 -25.778 -14.873  0.00  0.00    -0.239 N 
ATOM      6  C   UNL     1      37.807 -24.819 -14.535  0.00  0.00    +0.142 C 
ATOM      7  C   UNL     1      37.191 -23.472 -14.898  0.00  0.00    +0.237 C 
ATOM      8  C   UNL     1      36.938 -26.023 -14.889  0.00  0.00    +0.237 C 
ATOM      9  C   UNL     1      34.947 -24.537 -14.844  0.00  0.00    +0.312 C 
ATOM     10  H   UNL     1      35.383 -22.554 -14.895  0.00  0.00    +0.159 HD
ATOM     11  H   UNL     1      34.985 -26.567 -14.881  0.00  0.00    +0.159 HD
ENDROOT
BRANCH   6  12
ATOM     12  C   UNL     1      37.991 -24.832 -13.007  0.00  0.00    +0.017 C 
ATOM     13  C   UNL     1      37.259 -26.034 -12.413  0.00  0.00    +0.001 C 
BRANCH  12  14
ATOM     14  C   UNL     1      37.511 -23.497 -12.416  0.00  0.00    +0.001 C 
ATOM     15  C   UNL     1      36.511 -23.663 -11.282  0.00  0.00    +0.000 C 
ENDBRANCH  12  14
ENDBRANCH   6  12
BRANCH   6  16
ATOM     16  C   UNL     1      39.177 -24.958 -15.213  0.00  0.00    +0.043 C 
BRANCH  16  17
ATOM     17  C   UNL     1      40.220 -25.356 -14.224  0.00  0.00    -0.025 C 
ATOM     18  C   UNL     1      40.880 -26.519 -14.268  0.00  0.00    -0.005 C 
ENDBRANCH  16  17
ENDBRANCH   6  16
TORSDOF 4
ENDMDL
MODEL 8
REMARK VINA RESULT:      -6.7     16.463     18.833
REMARK  Name = 8275
REMARK  4 active torsions:
REMARK  status: ('A' for Active; 'I' for Inactive)
REMARK    1  A    between atoms: C_6  and  C_12
REMARK    2  A    between atoms: C_6  and  C_16
REMARK    3  A    between atoms: C_12  and  C_14
REMARK    4  A    between atoms: C_16  and  C_17
REMARK                            x       y       z     vdW  Elec       q    Type
REMARK                         _______ _______ _______ _____ _____    ______ ____
ROOT
ATOM      1  O   UNL     1      33.093  -9.695 -23.922  0.00  0.00    -0.274 OA
ATOM      2  O   UNL     1      33.013  -7.424 -19.813  0.00  0.00    -0.274 OA
ATOM      3  O   UNL     1      30.787 -11.402 -20.341  0.00  0.00    -0.252 OA
ATOM      4  N   UNL     1      31.861 -10.496 -22.161  0.00  0.00    -0.239 N 
ATOM      5  N   UNL     1      31.820  -9.361 -20.109  0.00  0.00    -0.239 N 
ATOM      6  C   UNL     1      32.644  -8.171 -22.090  0.00  0.00    +0.142 C 
ATOM      7  C   UNL     1      32.590  -9.513 -22.814  0.00  0.00    +0.237 C 
ATOM      8  C   UNL     1      32.545  -8.273 -20.571  0.00  0.00    +0.237 C 
ATOM      9  C   UNL     1      31.429 -10.476 -20.840  0.00  0.00    +0.312 C 
ATOM     10  H   UNL     1      31.624 -11.292 -22.690  0.00  0.00    +0.159 HD
ATOM     11  H   UNL     1      31.554  -9.341 -19.161  0.00  0.00    +0.159 HD
ENDROOT
BRANCH   6  12
ATOM     12  C   UNL     1      31.430  -7.354 -22.566  0.00  0.00    +0.017 C 
ATOM     13  C   UNL     1      31.055  -7.774 -23.986  0.00  0.00    +0.001 C 
BRANCH  12  14
ATOM     14  C   UNL     1      31.742  -5.853 -22.457  0.00  0.00    +0.001 C 
ATOM     15  C   UNL     1      31.311  -5.055 -23.679  0.00  0.00    +0.000 C 
ENDBRANCH  12  14
ENDBRANCH   6  12
BRANCH   6  16
ATOM     16  C   UNL     1      33.935  -7.433 -22.472  0.00  0.00    +0.043 C 
BRANCH  16  17
ATOM     17  C   UNL     1      34.294  -7.695 -23.897  0.00  0.00    -0.025 C 
ATOM     18  C   UNL     1      34.559  -6.730 -24.784  0.00  0.00    -0.005 C 
ENDBRANCH  16  17
ENDBRANCH   6  16
TORSDOF 4
ENDMDL
MODEL 9
REMARK VINA RESULT:      -6.7      2.133      3.792
REMARK  Name = 8275
REMARK  4 active torsions:
REMARK  status: ('A' for Active; 'I' for Inactive)
REMARK    1  A    between atoms: C_6  and  C_12
REMARK    2  A    between atoms: C_6  and  C_16
REMARK    3  A    between atoms: C_12  and  C_14
REMARK    4  A    between atoms: C_16  and  C_17
REMARK                            x       y       z     vdW  Elec       q    Type
REMARK                         _______ _______ _______ _____ _____    ______ ____
ROOT
ATOM      1  O   UNL     1      34.700 -24.951 -16.197  0.00  0.00    -0.274 OA
ATOM      2  O   UNL     1      38.165 -23.454 -13.405  0.00  0.00    -0.274 OA
ATOM      3  O   UNL     1      37.907 -27.857 -14.672  0.00  0.00    -0.252 OA
ATOM      4  N   UNL     1      36.247 -26.420 -15.354  0.00  0.00    -0.239 N 
ATOM      5  N   UNL     1      37.977 -25.672 -13.959  0.00  0.00    -0.239 N 
ATOM      6  C   UNL     1      36.050 -24.199 -14.329  0.00  0.00    +0.142 C 
ATOM      7  C   UNL     1      35.605 -25.191 -15.398  0.00  0.00    +0.237 C 
ATOM      8  C   UNL     1      37.496 -24.374 -13.873  0.00  0.00    +0.237 C 
ATOM      9  C   UNL     1      37.403 -26.733 -14.649  0.00  0.00    +0.312 C 
ATOM     10  H   UNL     1      35.840 -27.147 -15.877  0.00  0.00    +0.159 HD
ATOM     11  H   UNL     1      38.815 -25.863 -13.478  0.00  0.00    +0.159 HD
ENDROOT
BRANCH   6  12
ATOM     12  C   UNL     1      35.159 -24.433 -13.097  0.00  0.00    +0.017 C 
ATOM     13  C   UNL     1      33.705 -24.126 -13.452  0.00  0.00    +0.001 C 
BRANCH  12  14
ATOM     14  C   UNL     1      35.671 -23.589 -11.920  0.00  0.00    +0.001 C 
ATOM     15  C   UNL     1      35.706 -24.348 -10.601  0.00  0.00    +0.000 C 
ENDBRANCH  12  14
ENDBRANCH   6  12
BRANCH   6  16
ATOM     16  C   UNL     1      35.844 -22.766 -14.840  0.00  0.00    +0.043 C 
BRANCH  16  17
ATOM     17  C   UNL     1      36.500 -22.577 -16.167  0.00  0.00    -0.025 C 
ATOM     18  C   UNL     1      37.250 -21.514 -16.480  0.00  0.00    -0.005 C 
ENDBRANCH  16  17
ENDBRANCH   6  16
TORSDOF 4
ENDMDL
