MODEL 1
REMARK VINA RESULT:     -10.0      0.000      0.000
REMARK  Name = 456255
REMARK  9 active torsions:
REMARK  status: ('A' for Active; 'I' for Inactive)
REMARK    1  A    between atoms: CA_5  and  N_11
REMARK    2  A    between atoms: CA_7  and  C_24
REMARK    3  A    between atoms: C_8  and  C_27
REMARK    4  A    between atoms: C_12  and  C_14
REMARK    5  A    between atoms: C_14  and  C_15
REMARK    6  A    between atoms: C_14  and  O_21
REMARK    7  A    between atoms: C_24  and  O_25
REMARK    8  A    between atoms: C_27  and  S_28
REMARK    9  A    between atoms: S_28  and  C_33
REMARK                            x       y       z     vdW  Elec       q    Type
REMARK                         _______ _______ _______ _____ _____    ______ ____
ROOT
ATOM      1  S   UNL     1      33.639 -12.407 -24.153  0.00  0.00    -0.114 S 
ATOM      2  O   UNL     1      32.066 -12.775 -19.794  0.00  0.00    -0.273 OA
ATOM      3  N   UNL     1      32.780 -13.535 -21.909  0.00  0.00    -0.242 N 
ATOM      4  C   UNL     1      32.254 -12.885 -23.094  0.00  0.00    +0.155 C 
ATOM      5  CA  UNL     1      31.713 -11.797 -22.141  0.00  0.00    +0.178 C 
ATOM      6  C   UNL     1      32.154 -12.756 -20.999  0.00  0.00    +0.251 C 
ATOM      7  CA  UNL     1      33.632 -14.592 -21.942  0.00  0.00    +0.124 C 
ATOM      8  C   UNL     1      34.287 -14.936 -23.077  0.00  0.00    -0.002 C 
ATOM      9  C   UNL     1      34.211 -14.127 -24.369  0.00  0.00    +0.083 C 
ENDROOT
BRANCH   5  11
ATOM     10  O   UNL     1      31.215  -9.626 -20.300  0.00  0.00    -0.272 OA
ATOM     11  N   UNL     1      32.384 -10.498 -22.106  0.00  0.00    -0.294 N 
ATOM     12  C   UNL     1      32.071  -9.509 -21.173  0.00  0.00    +0.254 C 
ATOM     13  H   UNL     1      33.086 -10.313 -22.770  0.00  0.00    +0.150 HD
BRANCH  12  14
ATOM     14  C   UNL     1      32.922  -8.257 -21.329  0.00  0.00    +0.209 C 
BRANCH  14  15
ATOM     15  C   UNL     1      32.235  -7.219 -22.184  0.00  0.00    +0.013 C 
ATOM     16  C   UNL     1      31.579  -6.162 -21.572  0.00  0.00    -0.001 C 
ATOM     17  C   UNL     1      32.274  -7.340 -23.563  0.00  0.00    -0.001 C 
ATOM     18  C   UNL     1      30.946  -5.202 -22.361  0.00  0.00    -0.000 C 
ATOM     19  C   UNL     1      31.640  -6.381 -24.352  0.00  0.00    -0.000 C 
ATOM     20  C   UNL     1      30.976  -5.312 -23.751  0.00  0.00    -0.000 C 
ENDBRANCH  14  15
BRANCH  14  21
ATOM     21  O   UNL     1      33.176  -7.700 -20.048  0.00  0.00    -0.372 OA
ATOM     22  H   UNL     1      33.380  -8.411 -19.420  0.00  0.00    +0.211 HD
ENDBRANCH  14  21
ENDBRANCH  12  14
ENDBRANCH   5  11
BRANCH   7  24
ATOM     23  OXT UNL     1      34.923 -15.330 -20.088  0.00  0.00    -0.244 OA
ATOM     24  C   UNL     1      33.860 -15.305 -20.677  0.00  0.00    +0.351 C 
BRANCH  24  25
ATOM     25  O   UNL     1      32.720 -15.912 -20.293  0.00  0.00    -0.476 OA
ATOM     26  H   UNL     1      32.263 -15.612 -19.532  0.00  0.00    +0.295 HD
ENDBRANCH  24  25
ENDBRANCH   7  24
BRANCH   8  27
ATOM     27  C   UNL     1      35.184 -16.142 -23.216  0.00  0.00    +0.089 C 
BRANCH  27  28
ATOM     28  S   UNL     1      34.189 -17.639 -23.120  0.00  0.00    -0.070 S 
BRANCH  28  33
ATOM     29  N   UNL     1      34.472 -19.381 -21.047  0.00  0.00    -0.206 N 
ATOM     30  N   UNL     1      36.338 -18.454 -21.651  0.00  0.00    -0.101 NA
ATOM     31  N   UNL     1      35.401 -19.894 -20.229  0.00  0.00    -0.042 NA
ATOM     32  N   UNL     1      36.540 -19.324 -20.604  0.00  0.00    -0.022 NA
ATOM     33  C   UNL     1      35.076 -18.531 -21.876  0.00  0.00    +0.211 A 
ATOM     34  C   UNL     1      33.093 -19.782 -20.926  0.00  0.00    +0.158 C 
ENDBRANCH  28  33
ENDBRANCH  27  28
ENDBRANCH   8  27
TORSDOF 9
ENDMDL
MODEL 2
REMARK VINA RESULT:      -9.9      8.748     12.205
REMARK  Name = 456255
REMARK  9 active torsions:
REMARK  status: ('A' for Active; 'I' for Inactive)
REMARK    1  A    between atoms: CA_5  and  N_11
REMARK    2  A    between atoms: CA_7  and  C_24
REMARK    3  A    between atoms: C_8  and  C_27
REMARK    4  A    between atoms: C_12  and  C_14
REMARK    5  A    between atoms: C_14  and  C_15
REMARK    6  A    between atoms: C_14  and  O_21
REMARK    7  A    between atoms: C_24  and  O_25
REMARK    8  A    between atoms: C_27  and  S_28
REMARK    9  A    between atoms: S_28  and  C_33
REMARK                            x       y       z     vdW  Elec       q    Type
REMARK                         _______ _______ _______ _____ _____    ______ ____
ROOT
ATOM      1  S   UNL     1      35.711 -22.444 -16.776  0.00  0.00    -0.114 S 
ATOM      2  O   UNL     1      31.278 -23.683 -16.121  0.00  0.00    -0.273 OA
ATOM      3  N   UNL     1      33.606 -23.687 -15.742  0.00  0.00    -0.242 N 
ATOM      4  C   UNL     1      34.495 -23.778 -16.884  0.00  0.00    +0.155 C 
ATOM      5  CA  UNL     1      33.250 -23.502 -17.754  0.00  0.00    +0.178 C 
ATOM      6  C   UNL     1      32.445 -23.667 -16.433  0.00  0.00    +0.251 C 
ATOM      7  CA  UNL     1      34.032 -23.648 -14.453  0.00  0.00    +0.124 C 
ATOM      8  C   UNL     1      35.327 -23.395 -14.144  0.00  0.00    -0.002 C 
ATOM      9  C   UNL     1      36.384 -23.037 -15.186  0.00  0.00    +0.083 C 
ENDROOT
BRANCH   5  11
ATOM     10  O   UNL     1      34.410 -22.595 -20.241  0.00  0.00    -0.272 OA
ATOM     11  N   UNL     1      33.102 -22.182 -18.369  0.00  0.00    -0.294 N 
ATOM     12  C   UNL     1      33.705 -21.839 -19.578  0.00  0.00    +0.254 C 
ATOM     13  H   UNL     1      32.553 -21.508 -17.907  0.00  0.00    +0.150 HD
BRANCH  12  14
ATOM     14  C   UNL     1      33.382 -20.418 -20.018  0.00  0.00    +0.209 C 
BRANCH  14  15
ATOM     15  C   UNL     1      34.546 -19.780 -20.739  0.00  0.00    +0.013 C 
ATOM     16  C   UNL     1      35.826 -19.930 -20.228  0.00  0.00    -0.001 C 
ATOM     17  C   UNL     1      34.314 -19.058 -21.898  0.00  0.00    -0.001 C 
ATOM     18  C   UNL     1      36.901 -19.342 -20.893  0.00  0.00    -0.000 C 
ATOM     19  C   UNL     1      35.390 -18.469 -22.563  0.00  0.00    -0.000 C 
ATOM     20  C   UNL     1      36.683 -18.611 -22.061  0.00  0.00    -0.000 C 
ENDBRANCH  14  15
BRANCH  14  21
ATOM     21  O   UNL     1      32.261 -20.439 -20.889  0.00  0.00    -0.372 OA
ATOM     22  H   UNL     1      31.671 -19.698 -20.675  0.00  0.00    +0.211 HD
ENDBRANCH  14  21
ENDBRANCH  12  14
ENDBRANCH   5  11
BRANCH   7  24
ATOM     23  OXT UNL     1      32.425 -22.915 -12.862  0.00  0.00    -0.244 OA
ATOM     24  C   UNL     1      33.015 -23.828 -13.407  0.00  0.00    +0.351 C 
BRANCH  24  25
ATOM     25  O   UNL     1      32.853 -25.142 -13.161  0.00  0.00    -0.476 OA
ATOM     26  H   UNL     1      32.876 -25.758 -13.868  0.00  0.00    +0.295 HD
ENDBRANCH  24  25
ENDBRANCH   7  24
BRANCH   8  27
ATOM     27  C   UNL     1      35.894 -23.415 -12.746  0.00  0.00    +0.089 C 
BRANCH  27  28
ATOM     28  S   UNL     1      36.398 -25.092 -12.331  0.00  0.00    -0.070 S 
BRANCH  28  33
ATOM     29  N   UNL     1      37.988 -25.979 -14.355  0.00  0.00    -0.206 N 
ATOM     30  N   UNL     1      38.995 -24.608 -13.009  0.00  0.00    -0.101 NA
ATOM     31  N   UNL     1      39.233 -25.861 -14.838  0.00  0.00    -0.042 NA
ATOM     32  N   UNL     1      39.843 -25.021 -14.011  0.00  0.00    -0.022 NA
ATOM     33  C   UNL     1      37.894 -25.215 -13.268  0.00  0.00    +0.211 A 
ATOM     34  C   UNL     1      37.029 -26.828 -15.014  0.00  0.00    +0.158 C 
ENDBRANCH  28  33
ENDBRANCH  27  28
ENDBRANCH   8  27
TORSDOF 9
ENDMDL
MODEL 3
REMARK VINA RESULT:      -9.7      1.106      1.506
REMARK  Name = 456255
REMARK  9 active torsions:
REMARK  status: ('A' for Active; 'I' for Inactive)
REMARK    1  A    between atoms: CA_5  and  N_11
REMARK    2  A    between atoms: CA_7  and  C_24
REMARK    3  A    between atoms: C_8  and  C_27
REMARK    4  A    between atoms: C_12  and  C_14
REMARK    5  A    between atoms: C_14  and  C_15
REMARK    6  A    between atoms: C_14  and  O_21
REMARK    7  A    between atoms: C_24  and  O_25
REMARK    8  A    between atoms: C_27  and  S_28
REMARK    9  A    between atoms: S_28  and  C_33
REMARK                            x       y       z     vdW  Elec       q    Type
REMARK                         _______ _______ _______ _____ _____    ______ ____
ROOT
ATOM      1  S   UNL     1      33.667 -12.091 -23.997  0.00  0.00    -0.114 S 
ATOM      2  O   UNL     1      31.939 -12.703 -19.725  0.00  0.00    -0.273 OA
ATOM      3  N   UNL     1      32.715 -13.341 -21.858  0.00  0.00    -0.242 N 
ATOM      4  C   UNL     1      32.239 -12.611 -23.018  0.00  0.00    +0.155 C 
ATOM      5  CA  UNL     1      31.681 -11.576 -22.017  0.00  0.00    +0.178 C 
ATOM      6  C   UNL     1      32.069 -12.611 -20.923  0.00  0.00    +0.251 C 
ATOM      7  CA  UNL     1      33.552 -14.409 -21.929  0.00  0.00    +0.124 C 
ATOM      8  C   UNL     1      34.241 -14.692 -23.060  0.00  0.00    -0.002 C 
ATOM      9  C   UNL     1      34.222 -13.803 -24.301  0.00  0.00    +0.083 C 
ENDROOT
BRANCH   5  11
ATOM     10  O   UNL     1      30.842  -9.023 -23.081  0.00  0.00    -0.272 OA
ATOM     11  N   UNL     1      32.369 -10.292 -21.878  0.00  0.00    -0.294 N 
ATOM     12  C   UNL     1      31.881  -9.108 -22.432  0.00  0.00    +0.254 C 
ATOM     13  H   UNL     1      33.212 -10.263 -21.372  0.00  0.00    +0.150 HD
BRANCH  12  14
ATOM     14  C   UNL     1      32.764  -7.906 -22.130  0.00  0.00    +0.209 C 
BRANCH  14  15
ATOM     15  C   UNL     1      33.105  -7.136 -23.384  0.00  0.00    +0.013 C 
ATOM     16  C   UNL     1      34.339  -7.330 -23.984  0.00  0.00    -0.001 C 
ATOM     17  C   UNL     1      32.179  -6.252 -23.912  0.00  0.00    -0.001 C 
ATOM     18  C   UNL     1      34.655  -6.620 -25.142  0.00  0.00    -0.000 C 
ATOM     19  C   UNL     1      32.494  -5.542 -25.070  0.00  0.00    -0.000 C 
ATOM     20  C   UNL     1      33.732  -5.725 -25.685  0.00  0.00    -0.000 C 
ENDBRANCH  14  15
BRANCH  14  21
ATOM     21  O   UNL     1      32.087  -7.040 -21.231  0.00  0.00    -0.372 OA
ATOM     22  H   UNL     1      32.732  -6.466 -20.787  0.00  0.00    +0.211 HD
ENDBRANCH  14  21
ENDBRANCH  12  14
ENDBRANCH   5  11
BRANCH   7  24
ATOM     23  OXT UNL     1      34.771 -15.294 -20.090  0.00  0.00    -0.244 OA
ATOM     24  C   UNL     1      33.726 -15.202 -20.704  0.00  0.00    +0.351 C 
BRANCH  24  25
ATOM     25  O   UNL     1      32.560 -15.797 -20.387  0.00  0.00    -0.476 OA
ATOM     26  H   UNL     1      31.749 -15.408 -20.649  0.00  0.00    +0.295 HD
ENDBRANCH  24  25
ENDBRANCH   7  24
BRANCH   8  27
ATOM     27  C   UNL     1      35.126 -15.902 -23.244  0.00  0.00    +0.089 C 
BRANCH  27  28
ATOM     28  S   UNL     1      34.120 -17.392 -23.165  0.00  0.00    -0.070 S 
BRANCH  28  33
ATOM     29  N   UNL     1      34.428 -19.167 -21.124  0.00  0.00    -0.206 N 
ATOM     30  N   UNL     1      36.296 -18.283 -21.782  0.00  0.00    -0.101 NA
ATOM     31  N   UNL     1      35.372 -19.715 -20.345  0.00  0.00    -0.042 NA
ATOM     32  N   UNL     1      36.512 -19.171 -20.753  0.00  0.00    -0.022 NA
ATOM     33  C   UNL     1      35.026 -18.323 -21.963  0.00  0.00    +0.211 A 
ATOM     34  C   UNL     1      33.045 -19.533 -20.958  0.00  0.00    +0.158 C 
ENDBRANCH  28  33
ENDBRANCH  27  28
ENDBRANCH   8  27
TORSDOF 9
ENDMDL
MODEL 4
REMARK VINA RESULT:      -9.5      3.198      9.953
REMARK  Name = 456255
REMARK  9 active torsions:
REMARK  status: ('A' for Active; 'I' for Inactive)
REMARK    1  A    between atoms: CA_5  and  N_11
REMARK    2  A    between atoms: CA_7  and  C_24
REMARK    3  A    between atoms: C_8  and  C_27
REMARK    4  A    between atoms: C_12  and  C_14
REMARK    5  A    between atoms: C_14  and  C_15
REMARK    6  A    between atoms: C_14  and  O_21
REMARK    7  A    between atoms: C_24  and  O_25
REMARK    8  A    between atoms: C_27  and  S_28
REMARK    9  A    between atoms: S_28  and  C_33
REMARK                            x       y       z     vdW  Elec       q    Type
REMARK                         _______ _______ _______ _____ _____    ______ ____
ROOT
ATOM      1  S   UNL     1      32.899 -13.728 -21.614  0.00  0.00    -0.114 S 
ATOM      2  O   UNL     1      34.546 -14.939 -25.789  0.00  0.00    -0.273 OA
ATOM      3  N   UNL     1      33.333 -13.650 -24.231  0.00  0.00    -0.242 N 
ATOM      4  C   UNL     1      32.492 -14.335 -23.267  0.00  0.00    +0.155 C 
ATOM      5  CA  UNL     1      33.201 -15.632 -23.715  0.00  0.00    +0.178 C 
ATOM      6  C   UNL     1      33.832 -14.752 -24.831  0.00  0.00    +0.251 C 
ATOM      7  CA  UNL     1      33.431 -12.298 -24.322  0.00  0.00    +0.124 C 
ATOM      8  C   UNL     1      32.983 -11.489 -23.332  0.00  0.00    -0.002 C 
ATOM      9  C   UNL     1      32.429 -12.009 -22.008  0.00  0.00    +0.083 C 
ENDROOT
BRANCH   5  11
ATOM     10  O   UNL     1      34.463 -18.215 -24.005  0.00  0.00    -0.272 OA
ATOM     11  N   UNL     1      34.186 -16.238 -22.820  0.00  0.00    -0.294 N 
ATOM     12  C   UNL     1      34.741 -17.498 -23.046  0.00  0.00    +0.254 C 
ATOM     13  H   UNL     1      34.470 -15.735 -22.023  0.00  0.00    +0.150 HD
BRANCH  12  14
ATOM     14  C   UNL     1      35.757 -17.897 -21.986  0.00  0.00    +0.209 C 
BRANCH  14  15
ATOM     15  C   UNL     1      35.284 -19.083 -21.179  0.00  0.00    +0.013 C 
ATOM     16  C   UNL     1      36.220 -19.929 -20.605  0.00  0.00    -0.001 C 
ATOM     17  C   UNL     1      33.925 -19.302 -21.027  0.00  0.00    -0.001 C 
ATOM     18  C   UNL     1      35.784 -21.023 -19.859  0.00  0.00    -0.000 C 
ATOM     19  C   UNL     1      33.489 -20.397 -20.281  0.00  0.00    -0.000 C 
ATOM     20  C   UNL     1      34.418 -21.258 -19.697  0.00  0.00    -0.000 C 
ENDBRANCH  14  15
BRANCH  14  21
ATOM     21  O   UNL     1      36.985 -18.232 -22.615  0.00  0.00    -0.372 OA
ATOM     22  H   UNL     1      37.667 -18.372 -21.939  0.00  0.00    +0.211 HD
ENDBRANCH  14  21
ENDBRANCH  12  14
ENDBRANCH   5  11
BRANCH   7  24
ATOM     23  OXT UNL     1      35.045 -10.987 -25.474  0.00  0.00    -0.244 OA
ATOM     24  C   UNL     1      34.105 -11.757 -25.511  0.00  0.00    +0.351 C 
BRANCH  24  25
ATOM     25  O   UNL     1      33.516 -12.245 -26.620  0.00  0.00    -0.476 OA
ATOM     26  H   UNL     1      32.796 -11.787 -27.009  0.00  0.00    +0.295 HD
ENDBRANCH  24  25
ENDBRANCH   7  24
BRANCH   8  27
ATOM     27  C   UNL     1      32.981  -9.981 -23.393  0.00  0.00    +0.089 C 
BRANCH  27  28
ATOM     28  S   UNL     1      31.389  -9.363 -22.827  0.00  0.00    -0.070 S 
BRANCH  28  33
ATOM     29  N   UNL     1      31.727  -6.946 -21.620  0.00  0.00    -0.206 N 
ATOM     30  N   UNL     1      32.502  -8.604 -20.455  0.00  0.00    -0.101 NA
ATOM     31  N   UNL     1      32.226  -6.392 -20.506  0.00  0.00    -0.042 NA
ATOM     32  N   UNL     1      32.698  -7.411 -19.797  0.00  0.00    -0.022 NA
ATOM     33  C   UNL     1      31.913  -8.263 -21.544  0.00  0.00    +0.211 A 
ATOM     34  C   UNL     1      31.123  -6.122 -22.635  0.00  0.00    +0.158 C 
ENDBRANCH  28  33
ENDBRANCH  27  28
ENDBRANCH   8  27
TORSDOF 9
ENDMDL
MODEL 5
REMARK VINA RESULT:      -9.5      6.080      9.929
REMARK  Name = 456255
REMARK  9 active torsions:
REMARK  status: ('A' for Active; 'I' for Inactive)
REMARK    1  A    between atoms: CA_5  and  N_11
REMARK    2  A    between atoms: CA_7  and  C_24
REMARK    3  A    between atoms: C_8  and  C_27
REMARK    4  A    between atoms: C_12  and  C_14
REMARK    5  A    between atoms: C_14  and  C_15
REMARK    6  A    between atoms: C_14  and  O_21
REMARK    7  A    between atoms: C_24  and  O_25
REMARK    8  A    between atoms: C_27  and  S_28
REMARK    9  A    between atoms: S_28  and  C_33
REMARK                            x       y       z     vdW  Elec       q    Type
REMARK                         _______ _______ _______ _____ _____    ______ ____
ROOT
ATOM      1  S   UNL     1      36.807 -21.103 -18.141  0.00  0.00    -0.114 S 
ATOM      2  O   UNL     1      32.696 -21.632 -20.246  0.00  0.00    -0.273 OA
ATOM      3  N   UNL     1      34.482 -22.193 -18.812  0.00  0.00    -0.242 N 
ATOM      4  C   UNL     1      35.838 -22.079 -19.313  0.00  0.00    +0.155 C 
ATOM      5  CA  UNL     1      35.230 -21.311 -20.507  0.00  0.00    +0.178 C 
ATOM      6  C   UNL     1      33.855 -21.736 -19.917  0.00  0.00    +0.251 C 
ATOM      7  CA  UNL     1      34.171 -22.649 -17.570  0.00  0.00    +0.124 C 
ATOM      8  C   UNL     1      35.111 -22.755 -16.601  0.00  0.00    -0.002 C 
ATOM      9  C   UNL     1      36.554 -22.288 -16.775  0.00  0.00    +0.083 C 
ENDROOT
BRANCH   5  11
ATOM     10  O   UNL     1      34.825 -19.609 -22.807  0.00  0.00    -0.272 OA
ATOM     11  N   UNL     1      35.414 -19.861 -20.576  0.00  0.00    -0.294 N 
ATOM     12  C   UNL     1      35.192 -19.125 -21.739  0.00  0.00    +0.254 C 
ATOM     13  H   UNL     1      35.708 -19.386 -19.766  0.00  0.00    +0.150 HD
BRANCH  12  14
ATOM     14  C   UNL     1      35.430 -17.633 -21.551  0.00  0.00    +0.209 C 
BRANCH  14  15
ATOM     15  C   UNL     1      34.815 -16.825 -22.668  0.00  0.00    +0.013 C 
ATOM     16  C   UNL     1      34.007 -15.742 -22.357  0.00  0.00    -0.001 C 
ATOM     17  C   UNL     1      35.069 -17.179 -23.983  0.00  0.00    -0.001 C 
ATOM     18  C   UNL     1      33.439 -14.995 -23.388  0.00  0.00    -0.000 C 
ATOM     19  C   UNL     1      34.501 -16.431 -25.014  0.00  0.00    -0.000 C 
ATOM     20  C   UNL     1      33.685 -15.339 -24.717  0.00  0.00    -0.000 C 
ENDBRANCH  14  15
BRANCH  14  21
ATOM     21  O   UNL     1      34.861 -17.218 -20.318  0.00  0.00    -0.372 OA
ATOM     22  H   UNL     1      35.051 -16.277 -20.175  0.00  0.00    +0.211 HD
ENDBRANCH  14  21
ENDBRANCH  12  14
ENDBRANCH   5  11
BRANCH   7  24
ATOM     23  OXT UNL     1      32.365 -24.002 -16.823  0.00  0.00    -0.244 OA
ATOM     24  C   UNL     1      32.759 -22.960 -17.308  0.00  0.00    +0.351 C 
BRANCH  24  25
ATOM     25  O   UNL     1      31.994 -21.919 -17.689  0.00  0.00    -0.476 OA
ATOM     26  H   UNL     1      31.094 -22.056 -17.915  0.00  0.00    +0.295 HD
ENDBRANCH  24  25
ENDBRANCH   7  24
BRANCH   8  27
ATOM     27  C   UNL     1      34.864 -23.327 -15.226  0.00  0.00    +0.089 C 
BRANCH  27  28
ATOM     28  S   UNL     1      36.438 -23.549 -14.381  0.00  0.00    -0.070 S 
BRANCH  28  33
ATOM     29  N   UNL     1      37.926 -25.828 -14.441  0.00  0.00    -0.206 N 
ATOM     30  N   UNL     1      36.120 -25.949 -15.637  0.00  0.00    -0.101 NA
ATOM     31  N   UNL     1      37.937 -27.058 -14.973  0.00  0.00    -0.042 NA
ATOM     32  N   UNL     1      36.829 -27.127 -15.703  0.00  0.00    -0.022 NA
ATOM     33  C   UNL     1      36.826 -25.206 -14.864  0.00  0.00    +0.211 A 
ATOM     34  C   UNL     1      38.996 -25.398 -13.578  0.00  0.00    +0.158 C 
ENDBRANCH  28  33
ENDBRANCH  27  28
ENDBRANCH   8  27
TORSDOF 9
ENDMDL
MODEL 6
REMARK VINA RESULT:      -9.4      3.713     10.276
REMARK  Name = 456255
REMARK  9 active torsions:
REMARK  status: ('A' for Active; 'I' for Inactive)
REMARK    1  A    between atoms: CA_5  and  N_11
REMARK    2  A    between atoms: CA_7  and  C_24
REMARK    3  A    between atoms: C_8  and  C_27
REMARK    4  A    between atoms: C_12  and  C_14
REMARK    5  A    between atoms: C_14  and  C_15
REMARK    6  A    between atoms: C_14  and  O_21
REMARK    7  A    between atoms: C_24  and  O_25
REMARK    8  A    between atoms: C_27  and  S_28
REMARK    9  A    between atoms: S_28  and  C_33
REMARK                            x       y       z     vdW  Elec       q    Type
REMARK                         _______ _______ _______ _____ _____    ______ ____
ROOT
ATOM      1  S   UNL     1      34.325 -17.954 -24.482  0.00  0.00    -0.114 S 
ATOM      2  O   UNL     1      34.934 -16.123 -20.253  0.00  0.00    -0.273 OA
ATOM      3  N   UNL     1      34.715 -16.123 -22.601  0.00  0.00    -0.242 N 
ATOM      4  C   UNL     1      35.463 -17.100 -23.369  0.00  0.00    +0.155 C 
ATOM      5  CA  UNL     1      35.755 -17.795 -22.021  0.00  0.00    +0.178 C 
ATOM      6  C   UNL     1      35.107 -16.536 -21.376  0.00  0.00    +0.251 C 
ATOM      7  CA  UNL     1      33.922 -15.171 -23.158  0.00  0.00    +0.124 C 
ATOM      8  C   UNL     1      33.536 -15.243 -24.454  0.00  0.00    -0.002 C 
ATOM      9  C   UNL     1      33.864 -16.424 -25.364  0.00  0.00    +0.083 C 
ENDROOT
BRANCH   5  11
ATOM     10  O   UNL     1      36.438 -19.713 -19.970  0.00  0.00    -0.272 OA
ATOM     11  N   UNL     1      35.053 -19.040 -21.707  0.00  0.00    -0.294 N 
ATOM     12  C   UNL     1      35.463 -19.904 -20.693  0.00  0.00    +0.254 C 
ATOM     13  H   UNL     1      34.257 -19.277 -22.236  0.00  0.00    +0.150 HD
BRANCH  12  14
ATOM     14  C   UNL     1      34.558 -21.119 -20.548  0.00  0.00    +0.209 C 
BRANCH  14  15
ATOM     15  C   UNL     1      34.707 -21.767 -19.192  0.00  0.00    +0.013 C 
ATOM     16  C   UNL     1      33.623 -22.423 -18.630  0.00  0.00    -0.001 C 
ATOM     17  C   UNL     1      35.925 -21.696 -18.535  0.00  0.00    -0.001 C 
ATOM     18  C   UNL     1      33.761 -23.022 -17.378  0.00  0.00    -0.000 C 
ATOM     19  C   UNL     1      36.062 -22.295 -17.283  0.00  0.00    -0.000 C 
ATOM     20  C   UNL     1      34.980 -22.958 -16.704  0.00  0.00    -0.000 C 
ENDBRANCH  14  15
BRANCH  14  21
ATOM     21  O   UNL     1      33.206 -20.721 -20.718  0.00  0.00    -0.372 OA
ATOM     22  H   UNL     1      33.136 -19.759 -20.613  0.00  0.00    +0.211 HD
ENDBRANCH  14  21
ENDBRANCH  12  14
ENDBRANCH   5  11
BRANCH   7  24
ATOM     23  OXT UNL     1      32.358 -14.081 -21.738  0.00  0.00    -0.244 OA
ATOM     24  C   UNL     1      33.449 -14.096 -22.274  0.00  0.00    +0.351 C 
BRANCH  24  25
ATOM     25  O   UNL     1      34.405 -13.154 -22.163  0.00  0.00    -0.476 OA
ATOM     26  H   UNL     1      35.156 -13.181 -22.723  0.00  0.00    +0.295 HD
ENDBRANCH  24  25
ENDBRANCH   7  24
BRANCH   8  27
ATOM     27  C   UNL     1      32.726 -14.187 -25.167  0.00  0.00    +0.089 C 
BRANCH  27  28
ATOM     28  S   UNL     1      33.827 -13.147 -26.139  0.00  0.00    -0.070 S 
BRANCH  28  33
ATOM     29  N   UNL     1      34.749 -10.711 -25.347  0.00  0.00    -0.206 N 
ATOM     30  N   UNL     1      33.199 -11.505 -24.054  0.00  0.00    -0.101 NA
ATOM     31  N   UNL     1      34.575  -9.784 -24.396  0.00  0.00    -0.042 NA
ATOM     32  N   UNL     1      33.625 -10.275 -23.608  0.00  0.00    -0.022 NA
ATOM     33  C   UNL     1      33.909 -11.715 -25.103  0.00  0.00    +0.211 A 
ATOM     34  C   UNL     1      35.721 -10.509 -26.392  0.00  0.00    +0.158 C 
ENDBRANCH  28  33
ENDBRANCH  27  28
ENDBRANCH   8  27
TORSDOF 9
ENDMDL
MODEL 7
REMARK VINA RESULT:      -9.2      3.024      4.333
REMARK  Name = 456255
REMARK  9 active torsions:
REMARK  status: ('A' for Active; 'I' for Inactive)
REMARK    1  A    between atoms: CA_5  and  N_11
REMARK    2  A    between atoms: CA_7  and  C_24
REMARK    3  A    between atoms: C_8  and  C_27
REMARK    4  A    between atoms: C_12  and  C_14
REMARK    5  A    between atoms: C_14  and  C_15
REMARK    6  A    between atoms: C_14  and  O_21
REMARK    7  A    between atoms: C_24  and  O_25
REMARK    8  A    between atoms: C_27  and  S_28
REMARK    9  A    between atoms: S_28  and  C_33
REMARK                            x       y       z     vdW  Elec       q    Type
REMARK                         _______ _______ _______ _____ _____    ______ ____
ROOT
ATOM      1  S   UNL     1      34.339 -15.561 -20.999  0.00  0.00    -0.114 S 
ATOM      2  O   UNL     1      33.431 -14.938 -25.516  0.00  0.00    -0.273 OA
ATOM      3  N   UNL     1      34.457 -15.909 -23.628  0.00  0.00    -0.242 N 
ATOM      4  C   UNL     1      34.991 -15.035 -22.601  0.00  0.00    +0.155 C 
ATOM      5  CA  UNL     1      34.230 -13.894 -23.311  0.00  0.00    +0.178 C 
ATOM      6  C   UNL     1      33.954 -14.943 -24.426  0.00  0.00    +0.251 C 
ATOM      7  CA  UNL     1      34.551 -17.264 -23.591  0.00  0.00    +0.124 C 
ATOM      8  C   UNL     1      34.889 -17.918 -22.454  0.00  0.00    -0.002 C 
ATOM      9  C   UNL     1      35.093 -17.219 -21.112  0.00  0.00    +0.083 C 
ENDROOT
BRANCH   5  11
ATOM     10  O   UNL     1      33.154 -11.225 -23.568  0.00  0.00    -0.272 OA
ATOM     11  N   UNL     1      33.015 -13.368 -22.688  0.00  0.00    -0.294 N 
ATOM     12  C   UNL     1      32.576 -12.058 -22.874  0.00  0.00    +0.254 C 
ATOM     13  H   UNL     1      32.485 -13.966 -22.113  0.00  0.00    +0.150 HD
BRANCH  12  14
ATOM     14  C   UNL     1      31.276 -11.759 -22.140  0.00  0.00    +0.209 C 
BRANCH  14  15
ATOM     15  C   UNL     1      31.508 -10.883 -20.931  0.00  0.00    +0.013 C 
ATOM     16  C   UNL     1      31.828  -9.547 -21.112  0.00  0.00    -0.001 C 
ATOM     17  C   UNL     1      31.396 -11.431 -19.664  0.00  0.00    -0.001 C 
ATOM     18  C   UNL     1      32.041  -8.738 -19.996  0.00  0.00    -0.000 C 
ATOM     19  C   UNL     1      31.609 -10.623 -18.548  0.00  0.00    -0.000 C 
ATOM     20  C   UNL     1      31.932  -9.276 -18.714  0.00  0.00    -0.000 C 
ENDBRANCH  14  15
BRANCH  14  21
ATOM     21  O   UNL     1      30.382 -11.095 -23.020  0.00  0.00    -0.372 OA
ATOM     22  H   UNL     1      30.722 -10.209 -23.221  0.00  0.00    +0.211 HD
ENDBRANCH  14  21
ENDBRANCH  12  14
ENDBRANCH   5  11
BRANCH   7  24
ATOM     23  OXT UNL     1      33.463 -18.952 -24.864  0.00  0.00    -0.244 OA
ATOM     24  C   UNL     1      34.206 -17.990 -24.822  0.00  0.00    +0.351 C 
BRANCH  24  25
ATOM     25  O   UNL     1      34.839 -17.425 -25.868  0.00  0.00    -0.476 OA
ATOM     26  H   UNL     1      35.421 -16.703 -25.729  0.00  0.00    +0.295 HD
ENDBRANCH  24  25
ENDBRANCH   7  24
BRANCH   8  27
ATOM     27  C   UNL     1      35.093 -19.410 -22.353  0.00  0.00    +0.089 C 
BRANCH  27  28
ATOM     28  S   UNL     1      33.963 -20.084 -21.124  0.00  0.00    -0.070 S 
BRANCH  28  33
ATOM     29  N   UNL     1      34.817 -21.760 -19.156  0.00  0.00    -0.206 N 
ATOM     30  N   UNL     1      36.316 -20.315 -19.764  0.00  0.00    -0.101 NA
ATOM     31  N   UNL     1      35.888 -22.022 -18.394  0.00  0.00    -0.042 NA
ATOM     32  N   UNL     1      36.801 -21.135 -18.771  0.00  0.00    -0.022 NA
ATOM     33  C   UNL     1      35.119 -20.738 -19.955  0.00  0.00    +0.211 A 
ATOM     34  C   UNL     1      33.615 -22.543 -19.016  0.00  0.00    +0.158 C 
ENDBRANCH  28  33
ENDBRANCH  27  28
ENDBRANCH   8  27
TORSDOF 9
ENDMDL
MODEL 8
REMARK VINA RESULT:      -9.1      5.589     11.935
REMARK  Name = 456255
REMARK  9 active torsions:
REMARK  status: ('A' for Active; 'I' for Inactive)
REMARK    1  A    between atoms: CA_5  and  N_11
REMARK    2  A    between atoms: CA_7  and  C_24
REMARK    3  A    between atoms: C_8  and  C_27
REMARK    4  A    between atoms: C_12  and  C_14
REMARK    5  A    between atoms: C_14  and  C_15
REMARK    6  A    between atoms: C_14  and  O_21
REMARK    7  A    between atoms: C_24  and  O_25
REMARK    8  A    between atoms: C_27  and  S_28
REMARK    9  A    between atoms: S_28  and  C_33
REMARK                            x       y       z     vdW  Elec       q    Type
REMARK                         _______ _______ _______ _____ _____    ______ ____
ROOT
ATOM      1  S   UNL     1      32.695 -20.635 -19.904  0.00  0.00    -0.114 S 
ATOM      2  O   UNL     1      36.832 -22.077 -18.347  0.00  0.00    -0.273 OA
ATOM      3  N   UNL     1      35.303 -21.128 -19.872  0.00  0.00    -0.242 N 
ATOM      4  C   UNL     1      34.049 -21.814 -20.116  0.00  0.00    +0.155 C 
ATOM      5  CA  UNL     1      34.397 -22.685 -18.890  0.00  0.00    +0.178 C 
ATOM      6  C   UNL     1      35.783 -21.981 -18.941  0.00  0.00    +0.251 C 
ATOM      7  CA  UNL     1      35.675 -19.985 -20.505  0.00  0.00    +0.124 C 
ATOM      8  C   UNL     1      34.782 -19.237 -21.196  0.00  0.00    -0.002 C 
ATOM      9  C   UNL     1      33.287 -19.545 -21.244  0.00  0.00    +0.083 C 
ENDROOT
BRANCH   5  11
ATOM     10  O   UNL     1      34.580 -24.242 -16.462  0.00  0.00    -0.272 OA
ATOM     11  N   UNL     1      33.672 -22.460 -17.640  0.00  0.00    -0.294 N 
ATOM     12  C   UNL     1      33.829 -23.271 -16.517  0.00  0.00    +0.254 C 
ATOM     13  H   UNL     1      33.045 -21.702 -17.590  0.00  0.00    +0.150 HD
BRANCH  12  14
ATOM     14  C   UNL     1      32.982 -22.819 -15.335  0.00  0.00    +0.209 C 
BRANCH  14  15
ATOM     15  C   UNL     1      31.638 -23.507 -15.316  0.00  0.00    +0.013 C 
ATOM     16  C   UNL     1      31.461 -24.628 -14.521  0.00  0.00    -0.001 C 
ATOM     17  C   UNL     1      30.607 -23.005 -16.093  0.00  0.00    -0.001 C 
ATOM     18  C   UNL     1      30.220 -25.264 -14.503  0.00  0.00    -0.000 C 
ATOM     19  C   UNL     1      29.365 -23.640 -16.075  0.00  0.00    -0.000 C 
ATOM     20  C   UNL     1      29.172 -24.770 -15.280  0.00  0.00    -0.000 C 
ENDBRANCH  14  15
BRANCH  14  21
ATOM     21  O   UNL     1      33.665 -23.115 -14.127  0.00  0.00    -0.372 OA
ATOM     22  H   UNL     1      33.195 -22.709 -13.381  0.00  0.00    +0.211 HD
ENDBRANCH  14  21
ENDBRANCH  12  14
ENDBRANCH   5  11
BRANCH   7  24
ATOM     23  OXT UNL     1      37.824 -19.324 -21.279  0.00  0.00    -0.244 OA
ATOM     24  C   UNL     1      37.075 -19.562 -20.352  0.00  0.00    +0.351 C 
BRANCH  24  25
ATOM     25  O   UNL     1      37.378 -19.488 -19.041  0.00  0.00    -0.476 OA
ATOM     26  H   UNL     1      37.333 -20.256 -18.506  0.00  0.00    +0.295 HD
ENDBRANCH  24  25
ENDBRANCH   7  24
BRANCH   8  27
ATOM     27  C   UNL     1      35.131 -18.003 -21.992  0.00  0.00    +0.089 C 
BRANCH  27  28
ATOM     28  S   UNL     1      34.541 -16.544 -21.118  0.00  0.00    -0.070 S 
BRANCH  28  33
ATOM     29  N   UNL     1      33.133 -14.530 -22.289  0.00  0.00    -0.206 N 
ATOM     30  N   UNL     1      34.118 -15.832 -23.717  0.00  0.00    -0.101 NA
ATOM     31  N   UNL     1      32.819 -14.034 -23.494  0.00  0.00    -0.042 NA
ATOM     32  N   UNL     1      33.425 -14.834 -24.363  0.00  0.00    -0.022 NA
ATOM     33  C   UNL     1      33.907 -15.598 -22.473  0.00  0.00    +0.211 A 
ATOM     34  C   UNL     1      32.638 -13.901 -21.091  0.00  0.00    +0.158 C 
ENDBRANCH  28  33
ENDBRANCH  27  28
ENDBRANCH   8  27
TORSDOF 9
ENDMDL
MODEL 9
REMARK VINA RESULT:      -9.1      1.367      1.600
REMARK  Name = 456255
REMARK  9 active torsions:
REMARK  status: ('A' for Active; 'I' for Inactive)
REMARK    1  A    between atoms: CA_5  and  N_11
REMARK    2  A    between atoms: CA_7  and  C_24
REMARK    3  A    between atoms: C_8  and  C_27
REMARK    4  A    between atoms: C_12  and  C_14
REMARK    5  A    between atoms: C_14  and  C_15
REMARK    6  A    between atoms: C_14  and  O_21
REMARK    7  A    between atoms: C_24  and  O_25
REMARK    8  A    between atoms: C_27  and  S_28
REMARK    9  A    between atoms: S_28  and  C_33
REMARK                            x       y       z     vdW  Elec       q    Type
REMARK                         _______ _______ _______ _____ _____    ______ ____
ROOT
ATOM      1  S   UNL     1      33.373 -11.500 -23.973  0.00  0.00    -0.114 S 
ATOM      2  O   UNL     1      31.848 -12.307 -19.656  0.00  0.00    -0.273 OA
ATOM      3  N   UNL     1      32.560 -12.851 -21.838  0.00  0.00    -0.242 N 
ATOM      4  C   UNL     1      32.009 -12.107 -22.954  0.00  0.00    +0.155 C 
ATOM      5  CA  UNL     1      31.451 -11.125 -21.900  0.00  0.00    +0.178 C 
ATOM      6  C   UNL     1      31.925 -12.175 -20.855  0.00  0.00    +0.251 C 
ATOM      7  CA  UNL     1      33.436 -13.880 -21.975  0.00  0.00    +0.124 C 
ATOM      8  C   UNL     1      34.089 -14.102 -23.140  0.00  0.00    -0.002 C 
ATOM      9  C   UNL     1      33.983 -13.179 -24.351  0.00  0.00    +0.083 C 
ENDROOT
BRANCH   5  11
ATOM     10  O   UNL     1      30.775  -8.680 -23.284  0.00  0.00    -0.272 OA
ATOM     11  N   UNL     1      32.092  -9.819 -21.749  0.00  0.00    -0.294 N 
ATOM     12  C   UNL     1      31.692  -8.692 -22.466  0.00  0.00    +0.254 C 
ATOM     13  H   UNL     1      32.840  -9.733 -21.115  0.00  0.00    +0.150 HD
BRANCH  12  14
ATOM     14  C   UNL     1      32.499  -7.450 -22.117  0.00  0.00    +0.209 C 
BRANCH  14  15
ATOM     15  C   UNL     1      32.344  -6.372 -23.164  0.00  0.00    +0.013 C 
ATOM     16  C   UNL     1      31.509  -5.295 -22.911  0.00  0.00    -0.001 C 
ATOM     17  C   UNL     1      33.041  -6.479 -24.357  0.00  0.00    -0.001 C 
ATOM     18  C   UNL     1      31.367  -4.300 -23.877  0.00  0.00    -0.000 C 
ATOM     19  C   UNL     1      32.898  -5.483 -25.323  0.00  0.00    -0.000 C 
ATOM     20  C   UNL     1      32.061  -4.393 -25.083  0.00  0.00    -0.000 C 
ENDBRANCH  14  15
BRANCH  14  21
ATOM     21  O   UNL     1      32.059  -6.940 -20.867  0.00  0.00    -0.372 OA
ATOM     22  H   UNL     1      31.141  -6.635 -20.947  0.00  0.00    +0.211 HD
ENDBRANCH  14  21
ENDBRANCH  12  14
ENDBRANCH   5  11
BRANCH   7  24
ATOM     23  OXT UNL     1      34.747 -14.722 -20.180  0.00  0.00    -0.244 OA
ATOM     24  C   UNL     1      33.692 -14.701 -20.782  0.00  0.00    +0.351 C 
BRANCH  24  25
ATOM     25  O   UNL     1      32.587 -15.410 -20.481  0.00  0.00    -0.476 OA
ATOM     26  H   UNL     1      31.763 -14.974 -20.381  0.00  0.00    +0.295 HD
ENDBRANCH  24  25
ENDBRANCH   7  24
BRANCH   8  27
ATOM     27  C   UNL     1      35.013 -15.268 -23.397  0.00  0.00    +0.089 C 
BRANCH  27  28
ATOM     28  S   UNL     1      34.073 -16.626 -24.114  0.00  0.00    -0.070 S 
BRANCH  28  33
ATOM     29  N   UNL     1      34.719 -19.133 -23.273  0.00  0.00    -0.206 N 
ATOM     30  N   UNL     1      34.325 -17.755 -21.644  0.00  0.00    -0.101 NA
ATOM     31  N   UNL     1      34.889 -19.851 -22.154  0.00  0.00    -0.042 NA
ATOM     32  N   UNL     1      34.647 -19.003 -21.161  0.00  0.00    -0.022 NA
ATOM     33  C   UNL     1      34.385 -17.893 -22.919  0.00  0.00    +0.211 A 
ATOM     34  C   UNL     1      34.904 -19.743 -24.565  0.00  0.00    +0.158 C 
ENDBRANCH  28  33
ENDBRANCH  27  28
ENDBRANCH   8  27
TORSDOF 9
ENDMDL
