MODEL 1
REMARK VINA RESULT:      -6.8      0.000      0.000
REMARK  Name = 439398
REMARK  8 active torsions:
REMARK  status: ('A' for Active; 'I' for Inactive)
REMARK    1  A    between atoms: C_1  and  N_2
REMARK    2  A    between atoms: C_1  and  C_6
REMARK    3  A    between atoms: C_1  and  C_14
REMARK    4  A    between atoms: C_6  and  C_9
REMARK    5  A    between atoms: C_14  and  O_15
REMARK    6  A    between atoms: O_15  and  P_16
REMARK    7  A    between atoms: P_16  and  O_18
REMARK    8  A    between atoms: P_16  and  O_20
REMARK                            x       y       z     vdW  Elec       q    Type
REMARK                         _______ _______ _______ _____ _____    ______ ____
ROOT
ATOM      1  C   UNL     1      36.688 -25.793 -14.794  0.00  0.00    -0.029 C 
ENDROOT
BRANCH   1   2
ATOM      2  N   UNL     1      35.905 -26.829 -15.478  0.00  0.00    +0.384 N 
ATOM      3  H   UNL     1      34.910 -26.638 -15.356  0.00  0.00    -0.089 HD
ATOM      4  H   UNL     1      36.127 -27.742 -15.080  0.00  0.00    -0.089 HD
ATOM      5  H   UNL     1      36.132 -26.827 -16.472  0.00  0.00    -0.089 HD
ENDBRANCH   1   2
BRANCH   1   6
ATOM      6  C   UNL     1      35.712 -24.798 -14.138  0.00  0.00    +0.023 C 
BRANCH   6   9
ATOM      7  N   UNL     1      37.243 -23.215 -12.974  0.00  0.00    -0.319 N 
ATOM      8  N   UNL     1      36.775 -23.508 -10.823  0.00  0.00    -0.315 N 
ATOM      9  C   UNL     1      36.280 -24.150 -12.896  0.00  0.00    +0.035 C 
ATOM     10  C   UNL     1      35.992 -24.332 -11.593  0.00  0.00    +0.069 C 
ATOM     11  C   UNL     1      37.516 -22.850 -11.686  0.00  0.00    +0.182 C 
ATOM     12  H   UNL     1      37.664 -22.865 -13.792  0.00  0.00    +0.148 HD
ATOM     13  H   UNL     1      36.781 -23.429  -9.842  0.00  0.00    +0.148 HD
ENDBRANCH   6   9
ENDBRANCH   1   6
BRANCH   1  14
ATOM     14  C   UNL     1      37.644 -26.477 -13.805  0.00  0.00    +0.132 C 
BRANCH  14  15
ATOM     15  O   UNL     1      38.835 -26.917 -14.442  0.00  0.00    -0.276 OA
BRANCH  15  16
ATOM     16  P   UNL     1      40.080 -25.889 -14.536  0.00  0.00    +0.473 P 
ATOM     17  O   UNL     1      39.891 -24.593 -13.803  0.00  0.00    -0.228 OA
BRANCH  16  18
ATOM     18  O   UNL     1      40.348 -25.752 -16.125  0.00  0.00    -0.303 OA
ATOM     19  H   UNL     1      40.107 -26.582 -16.566  0.00  0.00    +0.222 HD
ENDBRANCH  16  18
BRANCH  16  20
ATOM     20  O   UNL     1      41.324 -26.787 -14.024  0.00  0.00    -0.303 OA
ATOM     21  H   UNL     1      41.413 -27.569 -14.592  0.00  0.00    +0.222 HD
ENDBRANCH  16  20
ENDBRANCH  15  16
ENDBRANCH  14  15
ENDBRANCH   1  14
TORSDOF 8
ENDMDL
MODEL 2
REMARK VINA RESULT:      -6.4      2.286      3.059
REMARK  Name = 439398
REMARK  8 active torsions:
REMARK  status: ('A' for Active; 'I' for Inactive)
REMARK    1  A    between atoms: C_1  and  N_2
REMARK    2  A    between atoms: C_1  and  C_6
REMARK    3  A    between atoms: C_1  and  C_14
REMARK    4  A    between atoms: C_6  and  C_9
REMARK    5  A    between atoms: C_14  and  O_15
REMARK    6  A    between atoms: O_15  and  P_16
REMARK    7  A    between atoms: P_16  and  O_18
REMARK    8  A    between atoms: P_16  and  O_20
REMARK                            x       y       z     vdW  Elec       q    Type
REMARK                         _______ _______ _______ _____ _____    ______ ____
ROOT
ATOM      1  C   UNL     1      36.853 -25.626 -14.952  0.00  0.00    -0.029 C 
ENDROOT
BRANCH   1   2
ATOM      2  N   UNL     1      35.723 -26.514 -15.251  0.00  0.00    +0.384 N 
ATOM      3  H   UNL     1      35.397 -26.340 -16.202  0.00  0.00    -0.089 HD
ATOM      4  H   UNL     1      34.965 -26.334 -14.593  0.00  0.00    -0.089 HD
ATOM      5  H   UNL     1      36.023 -27.486 -15.168  0.00  0.00    -0.089 HD
ENDBRANCH   1   2
BRANCH   1   6
ATOM      6  C   UNL     1      36.297 -24.239 -14.578  0.00  0.00    +0.023 C 
BRANCH   6   9
ATOM      7  N   UNL     1      35.422 -22.953 -16.524  0.00  0.00    -0.319 N 
ATOM      8  N   UNL     1      37.141 -21.692 -17.145  0.00  0.00    -0.315 N 
ATOM      9  C   UNL     1      36.443 -23.228 -15.692  0.00  0.00    +0.035 C 
ATOM     10  C   UNL     1      37.489 -22.465 -16.065  0.00  0.00    +0.069 C 
ATOM     11  C   UNL     1      35.891 -22.010 -17.395  0.00  0.00    +0.182 C 
ATOM     12  H   UNL     1      34.521 -23.350 -16.507  0.00  0.00    +0.148 HD
ATOM     13  H   UNL     1      37.704 -21.043 -17.625  0.00  0.00    +0.148 HD
ENDBRANCH   6   9
ENDBRANCH   1   6
BRANCH   1  14
ATOM     14  C   UNL     1      37.706 -26.276 -13.853  0.00  0.00    +0.132 C 
BRANCH  14  15
ATOM     15  O   UNL     1      38.882 -26.873 -14.382  0.00  0.00    -0.276 OA
BRANCH  15  16
ATOM     16  P   UNL     1      40.201 -25.952 -14.550  0.00  0.00    +0.473 P 
ATOM     17  O   UNL     1      40.133 -24.614 -13.874  0.00  0.00    -0.228 OA
BRANCH  16  18
ATOM     18  O   UNL     1      40.440 -25.908 -16.149  0.00  0.00    -0.303 OA
ATOM     19  H   UNL     1      41.260 -26.379 -16.366  0.00  0.00    +0.222 HD
ENDBRANCH  16  18
BRANCH  16  20
ATOM     20  O   UNL     1      41.384 -26.923 -14.023  0.00  0.00    -0.303 OA
ATOM     21  H   UNL     1      42.239 -26.480 -14.140  0.00  0.00    +0.222 HD
ENDBRANCH  16  20
ENDBRANCH  15  16
ENDBRANCH  14  15
ENDBRANCH   1  14
TORSDOF 8
ENDMDL
MODEL 3
REMARK VINA RESULT:      -6.4      1.833      3.005
REMARK  Name = 439398
REMARK  8 active torsions:
REMARK  status: ('A' for Active; 'I' for Inactive)
REMARK    1  A    between atoms: C_1  and  N_2
REMARK    2  A    between atoms: C_1  and  C_6
REMARK    3  A    between atoms: C_1  and  C_14
REMARK    4  A    between atoms: C_6  and  C_9
REMARK    5  A    between atoms: C_14  and  O_15
REMARK    6  A    between atoms: O_15  and  P_16
REMARK    7  A    between atoms: P_16  and  O_18
REMARK    8  A    between atoms: P_16  and  O_20
REMARK                            x       y       z     vdW  Elec       q    Type
REMARK                         _______ _______ _______ _____ _____    ______ ____
ROOT
ATOM      1  C   UNL     1      36.846 -25.425 -13.057  0.00  0.00    -0.029 C 
ENDROOT
BRANCH   1   2
ATOM      2  N   UNL     1      36.638 -24.077 -12.515  0.00  0.00    +0.384 N 
ATOM      3  H   UNL     1      36.885 -23.385 -13.224  0.00  0.00    -0.089 HD
ATOM      4  H   UNL     1      37.227 -23.946 -11.693  0.00  0.00    -0.089 HD
ATOM      5  H   UNL     1      35.659 -23.962 -12.255  0.00  0.00    -0.089 HD
ENDBRANCH   1   2
BRANCH   1   6
ATOM      6  C   UNL     1      36.373 -25.440 -14.523  0.00  0.00    +0.023 C 
BRANCH   6   9
ATOM      7  N   UNL     1      37.849 -23.741 -15.590  0.00  0.00    -0.319 N 
ATOM      8  N   UNL     1      36.444 -22.144 -16.231  0.00  0.00    -0.315 N 
ATOM      9  C   UNL     1      36.612 -24.127 -15.231  0.00  0.00    +0.035 C 
ATOM     10  C   UNL     1      35.756 -23.161 -15.617  0.00  0.00    +0.069 C 
ATOM     11  C   UNL     1      37.702 -22.526 -16.198  0.00  0.00    +0.182 C 
ATOM     12  H   UNL     1      38.688 -24.235 -15.445  0.00  0.00    +0.148 HD
ATOM     13  H   UNL     1      36.078 -21.314 -16.612  0.00  0.00    +0.148 HD
ENDBRANCH   6   9
ENDBRANCH   1   6
BRANCH   1  14
ATOM     14  C   UNL     1      38.322 -25.803 -12.871  0.00  0.00    +0.132 C 
BRANCH  14  15
ATOM     15  O   UNL     1      38.860 -26.418 -14.034  0.00  0.00    -0.276 OA
BRANCH  15  16
ATOM     16  P   UNL     1      40.372 -26.045 -14.470  0.00  0.00    +0.473 P 
ATOM     17  O   UNL     1      41.423 -27.010 -14.006  0.00  0.00    -0.228 OA
BRANCH  16  18
ATOM     18  O   UNL     1      40.557 -24.522 -13.957  0.00  0.00    -0.303 OA
ATOM     19  H   UNL     1      40.385 -24.479 -13.003  0.00  0.00    +0.222 HD
ENDBRANCH  16  18
BRANCH  16  20
ATOM     20  O   UNL     1      40.253 -25.886 -16.075  0.00  0.00    -0.303 OA
ATOM     21  H   UNL     1      41.044 -26.259 -16.496  0.00  0.00    +0.222 HD
ENDBRANCH  16  20
ENDBRANCH  15  16
ENDBRANCH  14  15
ENDBRANCH   1  14
TORSDOF 8
ENDMDL
MODEL 4
REMARK VINA RESULT:      -6.4      3.651      4.530
REMARK  Name = 439398
REMARK  8 active torsions:
REMARK  status: ('A' for Active; 'I' for Inactive)
REMARK    1  A    between atoms: C_1  and  N_2
REMARK    2  A    between atoms: C_1  and  C_6
REMARK    3  A    between atoms: C_1  and  C_14
REMARK    4  A    between atoms: C_6  and  C_9
REMARK    5  A    between atoms: C_14  and  O_15
REMARK    6  A    between atoms: O_15  and  P_16
REMARK    7  A    between atoms: P_16  and  O_18
REMARK    8  A    between atoms: P_16  and  O_20
REMARK                            x       y       z     vdW  Elec       q    Type
REMARK                         _______ _______ _______ _____ _____    ______ ____
ROOT
ATOM      1  C   UNL     1      37.320 -25.891 -14.008  0.00  0.00    -0.029 C 
ENDROOT
BRANCH   1   2
ATOM      2  N   UNL     1      37.077 -27.338 -13.978  0.00  0.00    +0.384 N 
ATOM      3  H   UNL     1      37.927 -27.831 -14.256  0.00  0.00    -0.089 HD
ATOM      4  H   UNL     1      36.323 -27.570 -14.625  0.00  0.00    -0.089 HD
ATOM      5  H   UNL     1      36.814 -27.620 -13.034  0.00  0.00    -0.089 HD
ENDBRANCH   1   2
BRANCH   1   6
ATOM      6  C   UNL     1      36.098 -25.205 -14.649  0.00  0.00    +0.023 C 
BRANCH   6   9
ATOM      7  N   UNL     1      37.717 -23.608 -15.665  0.00  0.00    -0.319 N 
ATOM      8  N   UNL     1      36.448 -21.907 -16.319  0.00  0.00    -0.315 N 
ATOM      9  C   UNL     1      36.448 -23.906 -15.337  0.00  0.00    +0.035 C 
ATOM     10  C   UNL     1      35.673 -22.876 -15.732  0.00  0.00    +0.069 C 
ATOM     11  C   UNL     1      37.673 -22.380 -16.263  0.00  0.00    +0.182 C 
ATOM     12  H   UNL     1      38.515 -24.164 -15.507  0.00  0.00    +0.148 HD
ATOM     13  H   UNL     1      36.152 -21.049 -16.698  0.00  0.00    +0.148 HD
ENDBRANCH   6   9
ENDBRANCH   1   6
BRANCH   1  14
ATOM     14  C   UNL     1      37.625 -25.419 -12.579  0.00  0.00    +0.132 C 
BRANCH  14  15
ATOM     15  O   UNL     1      36.465 -25.434 -11.759  0.00  0.00    -0.276 OA
BRANCH  15  16
ATOM     16  P   UNL     1      36.015 -24.058 -11.040  0.00  0.00    +0.473 P 
ATOM     17  O   UNL     1      37.098 -23.029 -10.903  0.00  0.00    -0.228 OA
BRANCH  16  18
ATOM     18  O   UNL     1      35.348 -24.549  -9.650  0.00  0.00    -0.303 OA
ATOM     19  H   UNL     1      35.135 -25.494  -9.711  0.00  0.00    +0.222 HD
ENDBRANCH  16  18
BRANCH  16  20
ATOM     20  O   UNL     1      34.740 -23.594 -11.921  0.00  0.00    -0.303 OA
ATOM     21  H   UNL     1      34.036 -23.282 -11.330  0.00  0.00    +0.222 HD
ENDBRANCH  16  20
ENDBRANCH  15  16
ENDBRANCH  14  15
ENDBRANCH   1  14
TORSDOF 8
ENDMDL
MODEL 5
REMARK VINA RESULT:      -6.3      2.180      3.146
REMARK  Name = 439398
REMARK  8 active torsions:
REMARK  status: ('A' for Active; 'I' for Inactive)
REMARK    1  A    between atoms: C_1  and  N_2
REMARK    2  A    between atoms: C_1  and  C_6
REMARK    3  A    between atoms: C_1  and  C_14
REMARK    4  A    between atoms: C_6  and  C_9
REMARK    5  A    between atoms: C_14  and  O_15
REMARK    6  A    between atoms: O_15  and  P_16
REMARK    7  A    between atoms: P_16  and  O_18
REMARK    8  A    between atoms: P_16  and  O_20
REMARK                            x       y       z     vdW  Elec       q    Type
REMARK                         _______ _______ _______ _____ _____    ______ ____
ROOT
ATOM      1  C   UNL     1      37.245 -23.939 -14.595  0.00  0.00    -0.029 C 
ENDROOT
BRANCH   1   2
ATOM      2  N   UNL     1      38.037 -23.526 -15.759  0.00  0.00    +0.384 N 
ATOM      3  H   UNL     1      38.972 -23.930 -15.694  0.00  0.00    -0.089 HD
ATOM      4  H   UNL     1      38.108 -22.508 -15.780  0.00  0.00    -0.089 HD
ATOM      5  H   UNL     1      37.585 -23.853 -16.613  0.00  0.00    -0.089 HD
ENDBRANCH   1   2
BRANCH   1   6
ATOM      6  C   UNL     1      36.078 -24.817 -15.087  0.00  0.00    +0.023 C 
BRANCH   6   9
ATOM      7  N   UNL     1      33.918 -24.842 -13.847  0.00  0.00    -0.319 N 
ATOM      8  N   UNL     1      32.864 -23.028 -14.576  0.00  0.00    -0.315 N 
ATOM      9  C   UNL     1      34.724 -24.242 -14.741  0.00  0.00    +0.035 C 
ATOM     10  C   UNL     1      34.089 -23.141 -15.187  0.00  0.00    +0.069 C 
ATOM     11  C   UNL     1      32.794 -24.068 -13.776  0.00  0.00    +0.182 C 
ATOM     12  H   UNL     1      34.102 -25.669 -13.345  0.00  0.00    +0.148 HD
ATOM     13  H   UNL     1      32.189 -22.325 -14.709  0.00  0.00    +0.148 HD
ENDBRANCH   6   9
ENDBRANCH   1   6
BRANCH   1  14
ATOM     14  C   UNL     1      38.176 -24.638 -13.594  0.00  0.00    +0.132 C 
BRANCH  14  15
ATOM     15  O   UNL     1      39.519 -24.670 -14.057  0.00  0.00    -0.276 OA
BRANCH  15  16
ATOM     16  P   UNL     1      40.097 -26.063 -14.641  0.00  0.00    +0.473 P 
ATOM     17  O   UNL     1      41.312 -26.591 -13.936  0.00  0.00    -0.228 OA
BRANCH  16  18
ATOM     18  O   UNL     1      40.285 -25.771 -16.220  0.00  0.00    -0.303 OA
ATOM     19  H   UNL     1      40.084 -24.839 -16.403  0.00  0.00    +0.222 HD
ENDBRANCH  16  18
BRANCH  16  20
ATOM     20  O   UNL     1      38.804 -27.034 -14.593  0.00  0.00    -0.303 OA
ATOM     21  H   UNL     1      38.382 -26.966 -13.722  0.00  0.00    +0.222 HD
ENDBRANCH  16  20
ENDBRANCH  15  16
ENDBRANCH  14  15
ENDBRANCH   1  14
TORSDOF 8
ENDMDL
MODEL 6
REMARK VINA RESULT:      -6.3      3.667      4.552
REMARK  Name = 439398
REMARK  8 active torsions:
REMARK  status: ('A' for Active; 'I' for Inactive)
REMARK    1  A    between atoms: C_1  and  N_2
REMARK    2  A    between atoms: C_1  and  C_6
REMARK    3  A    between atoms: C_1  and  C_14
REMARK    4  A    between atoms: C_6  and  C_9
REMARK    5  A    between atoms: C_14  and  O_15
REMARK    6  A    between atoms: O_15  and  P_16
REMARK    7  A    between atoms: P_16  and  O_18
REMARK    8  A    between atoms: P_16  and  O_20
REMARK                            x       y       z     vdW  Elec       q    Type
REMARK                         _______ _______ _______ _____ _____    ______ ____
ROOT
ATOM      1  C   UNL     1      37.950 -25.449 -13.737  0.00  0.00    -0.029 C 
ENDROOT
BRANCH   1   2
ATOM      2  N   UNL     1      39.147 -26.191 -14.150  0.00  0.00    +0.384 N 
ATOM      3  H   UNL     1      38.906 -26.829 -14.910  0.00  0.00    -0.089 HD
ATOM      4  H   UNL     1      39.507 -26.725 -13.359  0.00  0.00    -0.089 HD
ATOM      5  H   UNL     1      39.860 -25.536 -14.471  0.00  0.00    -0.089 HD
ENDBRANCH   1   2
BRANCH   1   6
ATOM      6  C   UNL     1      36.790 -25.834 -14.675  0.00  0.00    +0.023 C 
BRANCH   6   9
ATOM      7  N   UNL     1      34.452 -24.981 -14.588  0.00  0.00    -0.319 N 
ATOM      8  N   UNL     1      34.647 -22.837 -15.132  0.00  0.00    -0.315 N 
ATOM      9  C   UNL     1      35.756 -24.740 -14.810  0.00  0.00    +0.035 C 
ATOM     10  C   UNL     1      35.879 -23.440 -15.141  0.00  0.00    +0.069 C 
ATOM     11  C   UNL     1      33.810 -23.793 -14.794  0.00  0.00    +0.182 C 
ATOM     12  H   UNL     1      34.044 -25.839 -14.328  0.00  0.00    +0.148 HD
ATOM     13  H   UNL     1      34.436 -21.897 -15.333  0.00  0.00    +0.148 HD
ENDBRANCH   6   9
ENDBRANCH   1   6
BRANCH   1  14
ATOM     14  C   UNL     1      37.680 -25.746 -12.255  0.00  0.00    +0.132 C 
BRANCH  14  15
ATOM     15  O   UNL     1      36.333 -25.467 -11.898  0.00  0.00    -0.276 OA
BRANCH  15  16
ATOM     16  P   UNL     1      36.021 -24.108 -11.080  0.00  0.00    +0.473 P 
ATOM     17  O   UNL     1      37.176 -23.156 -10.965  0.00  0.00    -0.228 OA
BRANCH  16  18
ATOM     18  O   UNL     1      35.416 -24.633  -9.675  0.00  0.00    -0.303 OA
ATOM     19  H   UNL     1      34.567 -25.076  -9.834  0.00  0.00    +0.222 HD
ENDBRANCH  16  18
BRANCH  16  20
ATOM     20  O   UNL     1      34.725 -23.519 -11.847  0.00  0.00    -0.303 OA
ATOM     21  H   UNL     1      34.228 -22.942 -11.244  0.00  0.00    +0.222 HD
ENDBRANCH  16  20
ENDBRANCH  15  16
ENDBRANCH  14  15
ENDBRANCH   1  14
TORSDOF 8
ENDMDL
MODEL 7
REMARK VINA RESULT:      -6.2      2.102      2.894
REMARK  Name = 439398
REMARK  8 active torsions:
REMARK  status: ('A' for Active; 'I' for Inactive)
REMARK    1  A    between atoms: C_1  and  N_2
REMARK    2  A    between atoms: C_1  and  C_6
REMARK    3  A    between atoms: C_1  and  C_14
REMARK    4  A    between atoms: C_6  and  C_9
REMARK    5  A    between atoms: C_14  and  O_15
REMARK    6  A    between atoms: O_15  and  P_16
REMARK    7  A    between atoms: P_16  and  O_18
REMARK    8  A    between atoms: P_16  and  O_20
REMARK                            x       y       z     vdW  Elec       q    Type
REMARK                         _______ _______ _______ _____ _____    ______ ____
ROOT
ATOM      1  C   UNL     1      36.773 -25.478 -14.484  0.00  0.00    -0.029 C 
ENDROOT
BRANCH   1   2
ATOM      2  N   UNL     1      36.175 -26.709 -15.015  0.00  0.00    +0.384 N 
ATOM      3  H   UNL     1      36.905 -27.407 -15.158  0.00  0.00    -0.089 HD
ATOM      4  H   UNL     1      35.717 -26.509 -15.904  0.00  0.00    -0.089 HD
ATOM      5  H   UNL     1      35.488 -27.067 -14.351  0.00  0.00    -0.089 HD
ENDBRANCH   1   2
BRANCH   1   6
ATOM      6  C   UNL     1      35.668 -24.660 -13.788  0.00  0.00    +0.023 C 
BRANCH   6   9
ATOM      7  N   UNL     1      34.988 -23.628 -15.950  0.00  0.00    -0.319 N 
ATOM      8  N   UNL     1      32.778 -23.478 -15.797  0.00  0.00    -0.315 N 
ATOM      9  C   UNL     1      34.635 -24.127 -14.753  0.00  0.00    +0.035 C 
ATOM     10  C   UNL     1      33.294 -24.038 -14.655  0.00  0.00    +0.069 C 
ATOM     11  C   UNL     1      33.825 -23.243 -16.556  0.00  0.00    +0.182 C 
ATOM     12  H   UNL     1      35.900 -23.555 -16.316  0.00  0.00    +0.148 HD
ATOM     13  H   UNL     1      31.833 -23.293 -16.002  0.00  0.00    +0.148 HD
ENDBRANCH   6   9
ENDBRANCH   1   6
BRANCH   1  14
ATOM     14  C   UNL     1      37.942 -25.860 -13.566  0.00  0.00    +0.132 C 
BRANCH  14  15
ATOM     15  O   UNL     1      38.928 -26.618 -14.254  0.00  0.00    -0.276 OA
BRANCH  15  16
ATOM     16  P   UNL     1      40.356 -25.923 -14.557  0.00  0.00    +0.473 P 
ATOM     17  O   UNL     1      40.561 -24.584 -13.911  0.00  0.00    -0.228 OA
BRANCH  16  18
ATOM     18  O   UNL     1      40.457 -25.935 -16.171  0.00  0.00    -0.303 OA
ATOM     19  H   UNL     1      40.916 -25.135 -16.472  0.00  0.00    +0.222 HD
ENDBRANCH  16  18
BRANCH  16  20
ATOM     20  O   UNL     1      41.411 -27.065 -14.109  0.00  0.00    -0.303 OA
ATOM     21  H   UNL     1      40.937 -27.785 -13.664  0.00  0.00    +0.222 HD
ENDBRANCH  16  20
ENDBRANCH  15  16
ENDBRANCH  14  15
ENDBRANCH   1  14
TORSDOF 8
ENDMDL
MODEL 8
REMARK VINA RESULT:      -6.2     10.532     11.544
REMARK  Name = 439398
REMARK  8 active torsions:
REMARK  status: ('A' for Active; 'I' for Inactive)
REMARK    1  A    between atoms: C_1  and  N_2
REMARK    2  A    between atoms: C_1  and  C_6
REMARK    3  A    between atoms: C_1  and  C_14
REMARK    4  A    between atoms: C_6  and  C_9
REMARK    5  A    between atoms: C_14  and  O_15
REMARK    6  A    between atoms: O_15  and  P_16
REMARK    7  A    between atoms: P_16  and  O_18
REMARK    8  A    between atoms: P_16  and  O_20
REMARK                            x       y       z     vdW  Elec       q    Type
REMARK                         _______ _______ _______ _____ _____    ______ ____
ROOT
ATOM      1  C   UNL     1      35.076 -18.989 -21.541  0.00  0.00    -0.029 C 
ENDROOT
BRANCH   1   2
ATOM      2  N   UNL     1      35.354 -17.686 -20.925  0.00  0.00    +0.384 N 
ATOM      3  H   UNL     1      34.689 -17.519 -20.169  0.00  0.00    -0.089 HD
ATOM      4  H   UNL     1      35.262 -16.951 -21.627  0.00  0.00    -0.089 HD
ATOM      5  H   UNL     1      36.303 -17.682 -20.551  0.00  0.00    -0.089 HD
ENDBRANCH   1   2
BRANCH   1   6
ATOM      6  C   UNL     1      33.751 -19.526 -20.967  0.00  0.00    +0.023 C 
BRANCH   6   9
ATOM      7  N   UNL     1      32.899 -21.331 -19.477  0.00  0.00    -0.319 N 
ATOM      8  N   UNL     1      34.743 -22.320 -18.732  0.00  0.00    -0.315 N 
ATOM      9  C   UNL     1      33.947 -20.692 -20.027  0.00  0.00    +0.035 C 
ATOM     10  C   UNL     1      35.068 -21.289 -19.578  0.00  0.00    +0.069 C 
ATOM     11  C   UNL     1      33.429 -22.317 -18.694  0.00  0.00    +0.182 C 
ATOM     12  H   UNL     1      31.945 -21.128 -19.613  0.00  0.00    +0.148 HD
ATOM     13  H   UNL     1      35.357 -22.926 -18.259  0.00  0.00    +0.148 HD
ENDBRANCH   6   9
ENDBRANCH   1   6
BRANCH   1  14
ATOM     14  C   UNL     1      35.073 -18.816 -23.067  0.00  0.00    +0.132 C 
BRANCH  14  15
ATOM     15  O   UNL     1      34.108 -17.862 -23.488  0.00  0.00    -0.276 OA
BRANCH  15  16
ATOM     16  P   UNL     1      34.611 -16.598 -24.362  0.00  0.00    +0.473 P 
ATOM     17  O   UNL     1      34.853 -16.886 -25.815  0.00  0.00    -0.228 OA
BRANCH  16  18
ATOM     18  O   UNL     1      35.893 -16.047 -23.544  0.00  0.00    -0.303 OA
ATOM     19  H   UNL     1      35.639 -15.258 -23.038  0.00  0.00    +0.222 HD
ENDBRANCH  16  18
BRANCH  16  20
ATOM     20  O   UNL     1      33.475 -15.484 -24.067  0.00  0.00    -0.303 OA
ATOM     21  H   UNL     1      33.842 -14.600 -24.223  0.00  0.00    +0.222 HD
ENDBRANCH  16  20
ENDBRANCH  15  16
ENDBRANCH  14  15
ENDBRANCH   1  14
TORSDOF 8
ENDMDL
MODEL 9
REMARK VINA RESULT:      -6.1      3.541      4.423
REMARK  Name = 439398
REMARK  8 active torsions:
REMARK  status: ('A' for Active; 'I' for Inactive)
REMARK    1  A    between atoms: C_1  and  N_2
REMARK    2  A    between atoms: C_1  and  C_6
REMARK    3  A    between atoms: C_1  and  C_14
REMARK    4  A    between atoms: C_6  and  C_9
REMARK    5  A    between atoms: C_14  and  O_15
REMARK    6  A    between atoms: O_15  and  P_16
REMARK    7  A    between atoms: P_16  and  O_18
REMARK    8  A    between atoms: P_16  and  O_20
REMARK                            x       y       z     vdW  Elec       q    Type
REMARK                         _______ _______ _______ _____ _____    ______ ____
ROOT
ATOM      1  C   UNL     1      34.423 -24.274 -14.676  0.00  0.00    -0.029 C 
ENDROOT
BRANCH   1   2
ATOM      2  N   UNL     1      33.363 -23.657 -15.481  0.00  0.00    +0.384 N 
ATOM      3  H   UNL     1      32.716 -24.378 -15.802  0.00  0.00    -0.089 HD
ATOM      4  H   UNL     1      33.777 -23.189 -16.288  0.00  0.00    -0.089 HD
ATOM      5  H   UNL     1      32.858 -22.975 -14.915  0.00  0.00    -0.089 HD
ENDBRANCH   1   2
BRANCH   1   6
ATOM      6  C   UNL     1      35.769 -24.058 -15.393  0.00  0.00    +0.023 C 
BRANCH   6   9
ATOM      7  N   UNL     1      37.995 -24.597 -14.416  0.00  0.00    -0.319 N 
ATOM      8  N   UNL     1      38.067 -26.817 -14.446  0.00  0.00    -0.315 N 
ATOM      9  C   UNL     1      36.837 -25.029 -14.945  0.00  0.00    +0.035 C 
ATOM     10  C   UNL     1      36.875 -26.375 -14.966  0.00  0.00    +0.069 C 
ATOM     11  C   UNL     1      38.717 -25.721 -14.125  0.00  0.00    +0.182 C 
ATOM     12  H   UNL     1      38.267 -23.662 -14.268  0.00  0.00    +0.148 HD
ATOM     13  H   UNL     1      38.367 -27.748 -14.339  0.00  0.00    +0.148 HD
ENDBRANCH   6   9
ENDBRANCH   1   6
BRANCH   1  14
ATOM     14  C   UNL     1      34.366 -23.684 -13.260  0.00  0.00    +0.132 C 
BRANCH  14  15
ATOM     15  O   UNL     1      34.549 -24.682 -12.265  0.00  0.00    -0.276 OA
BRANCH  15  16
ATOM     16  P   UNL     1      35.795 -24.530 -11.246  0.00  0.00    +0.473 P 
ATOM     17  O   UNL     1      35.421 -24.410  -9.797  0.00  0.00    -0.228 OA
BRANCH  16  18
ATOM     18  O   UNL     1      36.637 -23.287 -11.848  0.00  0.00    -0.303 OA
ATOM     19  H   UNL     1      36.856 -22.669 -11.133  0.00  0.00    +0.222 HD
ENDBRANCH  16  18
BRANCH  16  20
ATOM     20  O   UNL     1      36.712 -25.812 -11.610  0.00  0.00    -0.303 OA
ATOM     21  H   UNL     1      36.716 -26.429 -10.861  0.00  0.00    +0.222 HD
ENDBRANCH  16  20
ENDBRANCH  15  16
ENDBRANCH  14  15
ENDBRANCH   1  14
TORSDOF 8
ENDMDL
