MODEL 1
REMARK VINA RESULT:      -7.7      0.000      0.000
REMARK  Name = 26757
REMARK  5 active torsions:
REMARK  status: ('A' for Active; 'I' for Inactive)
REMARK    1  A    between atoms: C_1  and  N_3
REMARK    2  A    between atoms: C_1  and  C_9
REMARK    3  A    between atoms: N_3  and  C_6
REMARK    4  A    between atoms: C_6  and  C_7
REMARK    5  A    between atoms: C_9  and  C_10
REMARK                            x       y       z     vdW  Elec       q    Type
REMARK                         _______ _______ _______ _____ _____    ______ ____
ROOT
ATOM      1  C   UNL     1      35.313 -18.124 -22.925  0.00  0.00    -0.052 C 
ATOM      2  C   UNL     1      34.834 -19.093 -24.006  0.00  0.00    -0.023 C 
ENDROOT
BRANCH   1   3
ATOM      3  N   UNL     1      35.327 -16.772 -23.490  0.00  0.00    +0.395 N 
ATOM      4  C   UNL     1      34.638 -16.754 -24.779  0.00  0.00    -0.099 C 
ATOM      5  H   UNL     1      36.295 -16.489 -23.638  0.00  0.00    -0.078 HD
BRANCH   3   6
ATOM      6  C   UNL     1      34.706 -15.828 -22.563  0.00  0.00    +0.003 C 
BRANCH   6   7
ATOM      7  C   UNL     1      34.273 -14.615 -23.263  0.00  0.00    -0.101 C 
ATOM      8  C   UNL     1      33.913 -13.620 -23.833  0.00  0.00    -0.016 C 
ENDBRANCH   6   7
ENDBRANCH   3   6
ENDBRANCH   1   3
BRANCH   1   9
ATOM      9  C   UNL     1      34.418 -18.149 -21.672  0.00  0.00    +0.006 C 
BRANCH   9  10
ATOM     10  C   UNL     1      34.500 -19.442 -20.895  0.00  0.00    -0.024 C 
ATOM     11  C   UNL     1      35.741 -19.995 -20.626  0.00  0.00    -0.004 C 
ATOM     12  C   UNL     1      33.332 -20.050 -20.466  0.00  0.00    -0.004 C 
ATOM     13  C   UNL     1      35.818 -21.189 -19.909  0.00  0.00    -0.000 C 
ATOM     14  C   UNL     1      33.407 -21.244 -19.748  0.00  0.00    -0.000 C 
ATOM     15  C   UNL     1      34.649 -21.813 -19.469  0.00  0.00    -0.000 C 
ENDBRANCH   9  10
ENDBRANCH   1   9
TORSDOF 5
ENDMDL
MODEL 2
REMARK VINA RESULT:      -7.4      1.305      2.152
REMARK  Name = 26757
REMARK  5 active torsions:
REMARK  status: ('A' for Active; 'I' for Inactive)
REMARK    1  A    between atoms: C_1  and  N_3
REMARK    2  A    between atoms: C_1  and  C_9
REMARK    3  A    between atoms: N_3  and  C_6
REMARK    4  A    between atoms: C_6  and  C_7
REMARK    5  A    between atoms: C_9  and  C_10
REMARK                            x       y       z     vdW  Elec       q    Type
REMARK                         _______ _______ _______ _____ _____    ______ ____
ROOT
ATOM      1  C   UNL     1      34.000 -16.498 -21.685  0.00  0.00    -0.052 C 
ATOM      2  C   UNL     1      34.649 -15.682 -20.567  0.00  0.00    -0.023 C 
ENDROOT
BRANCH   1   3
ATOM      3  N   UNL     1      33.762 -15.610 -22.826  0.00  0.00    +0.395 N 
ATOM      4  C   UNL     1      34.343 -14.292 -22.574  0.00  0.00    -0.099 C 
ATOM      5  H   UNL     1      32.756 -15.500 -22.952  0.00  0.00    -0.078 HD
BRANCH   3   6
ATOM      6  C   UNL     1      34.319 -16.191 -24.046  0.00  0.00    +0.003 C 
BRANCH   6   7
ATOM      7  C   UNL     1      33.664 -15.638 -25.235  0.00  0.00    -0.101 C 
ATOM      8  C   UNL     1      33.132 -15.181 -26.211  0.00  0.00    -0.016 C 
ENDBRANCH   6   7
ENDBRANCH   3   6
ENDBRANCH   1   3
BRANCH   1   9
ATOM      9  C   UNL     1      34.872 -17.686 -22.131  0.00  0.00    +0.006 C 
BRANCH   9  10
ATOM     10  C   UNL     1      34.672 -18.930 -21.298  0.00  0.00    -0.024 C 
ATOM     11  C   UNL     1      35.778 -19.637 -20.856  0.00  0.00    -0.004 C 
ATOM     12  C   UNL     1      33.384 -19.341 -20.992  0.00  0.00    -0.004 C 
ATOM     13  C   UNL     1      35.593 -20.786 -20.087  0.00  0.00    -0.000 C 
ATOM     14  C   UNL     1      33.199 -20.490 -20.222  0.00  0.00    -0.000 C 
ATOM     15  C   UNL     1      34.303 -21.212 -19.770  0.00  0.00    -0.000 C 
ENDBRANCH   9  10
ENDBRANCH   1   9
TORSDOF 5
ENDMDL
MODEL 3
REMARK VINA RESULT:      -7.3      1.434      2.136
REMARK  Name = 26757
REMARK  5 active torsions:
REMARK  status: ('A' for Active; 'I' for Inactive)
REMARK    1  A    between atoms: C_1  and  N_3
REMARK    2  A    between atoms: C_1  and  C_9
REMARK    3  A    between atoms: N_3  and  C_6
REMARK    4  A    between atoms: C_6  and  C_7
REMARK    5  A    between atoms: C_9  and  C_10
REMARK                            x       y       z     vdW  Elec       q    Type
REMARK                         _______ _______ _______ _____ _____    ______ ____
ROOT
ATOM      1  C   UNL     1      35.278 -17.942 -21.556  0.00  0.00    -0.052 C 
ATOM      2  C   UNL     1      36.102 -18.173 -22.824  0.00  0.00    -0.023 C 
ENDROOT
BRANCH   1   3
ATOM      3  N   UNL     1      34.820 -16.550 -21.550  0.00  0.00    +0.395 N 
ATOM      4  C   UNL     1      34.943 -15.970 -22.887  0.00  0.00    -0.099 C 
ATOM      5  H   UNL     1      35.408 -16.015 -20.911  0.00  0.00    -0.078 HD
BRANCH   3   6
ATOM      6  C   UNL     1      33.438 -16.472 -21.082  0.00  0.00    +0.003 C 
BRANCH   6   7
ATOM      7  C   UNL     1      33.024 -15.077 -20.903  0.00  0.00    -0.101 C 
ATOM      8  C   UNL     1      32.691 -13.933 -20.756  0.00  0.00    -0.016 C 
ENDBRANCH   6   7
ENDBRANCH   3   6
ENDBRANCH   1   3
BRANCH   1   9
ATOM      9  C   UNL     1      34.064 -18.883 -21.463  0.00  0.00    +0.006 C 
BRANCH   9  10
ATOM     10  C   UNL     1      34.285 -20.069 -20.554  0.00  0.00    -0.024 C 
ATOM     11  C   UNL     1      33.191 -20.714 -20.001  0.00  0.00    -0.004 C 
ATOM     12  C   UNL     1      35.579 -20.489 -20.289  0.00  0.00    -0.004 C 
ATOM     13  C   UNL     1      33.394 -21.809 -19.161  0.00  0.00    -0.000 C 
ATOM     14  C   UNL     1      35.783 -21.584 -19.449  0.00  0.00    -0.000 C 
ATOM     15  C   UNL     1      34.692 -22.244 -18.885  0.00  0.00    -0.000 C 
ENDBRANCH   9  10
ENDBRANCH   1   9
TORSDOF 5
ENDMDL
MODEL 4
REMARK VINA RESULT:      -7.3      1.048      1.761
REMARK  Name = 26757
REMARK  5 active torsions:
REMARK  status: ('A' for Active; 'I' for Inactive)
REMARK    1  A    between atoms: C_1  and  N_3
REMARK    2  A    between atoms: C_1  and  C_9
REMARK    3  A    between atoms: N_3  and  C_6
REMARK    4  A    between atoms: C_6  and  C_7
REMARK    5  A    between atoms: C_9  and  C_10
REMARK                            x       y       z     vdW  Elec       q    Type
REMARK                         _______ _______ _______ _____ _____    ______ ____
ROOT
ATOM      1  C   UNL     1      34.376 -16.490 -21.837  0.00  0.00    -0.052 C 
ATOM      2  C   UNL     1      34.579 -15.511 -20.680  0.00  0.00    -0.023 C 
ENDROOT
BRANCH   1   3
ATOM      3  N   UNL     1      34.530 -15.756 -23.096  0.00  0.00    +0.395 N 
ATOM      4  C   UNL     1      34.855 -16.677 -24.184  0.00  0.00    -0.099 C 
ATOM      5  H   UNL     1      35.297 -15.092 -22.995  0.00  0.00    -0.078 HD
BRANCH   3   6
ATOM      6  C   UNL     1      33.311 -15.010 -23.401  0.00  0.00    +0.003 C 
BRANCH   6   7
ATOM      7  C   UNL     1      33.626 -13.638 -23.809  0.00  0.00    -0.101 C 
ATOM      8  C   UNL     1      33.879 -12.511 -24.140  0.00  0.00    -0.016 C 
ENDBRANCH   6   7
ENDBRANCH   3   6
ENDBRANCH   1   3
BRANCH   1   9
ATOM      9  C   UNL     1      35.374 -17.662 -21.800  0.00  0.00    +0.006 C 
BRANCH   9  10
ATOM     10  C   UNL     1      34.836 -18.893 -21.109  0.00  0.00    -0.024 C 
ATOM     11  C   UNL     1      35.722 -19.830 -20.604  0.00  0.00    -0.004 C 
ATOM     12  C   UNL     1      33.465 -19.062 -20.992  0.00  0.00    -0.004 C 
ATOM     13  C   UNL     1      35.226 -20.967 -19.966  0.00  0.00    -0.000 C 
ATOM     14  C   UNL     1      32.969 -20.198 -20.353  0.00  0.00    -0.000 C 
ATOM     15  C   UNL     1      33.848 -21.151 -19.840  0.00  0.00    -0.000 C 
ENDBRANCH   9  10
ENDBRANCH   1   9
TORSDOF 5
ENDMDL
MODEL 5
REMARK VINA RESULT:      -7.1      1.590      5.557
REMARK  Name = 26757
REMARK  5 active torsions:
REMARK  status: ('A' for Active; 'I' for Inactive)
REMARK    1  A    between atoms: C_1  and  N_3
REMARK    2  A    between atoms: C_1  and  C_9
REMARK    3  A    between atoms: N_3  and  C_6
REMARK    4  A    between atoms: C_6  and  C_7
REMARK    5  A    between atoms: C_9  and  C_10
REMARK                            x       y       z     vdW  Elec       q    Type
REMARK                         _______ _______ _______ _____ _____    ______ ____
ROOT
ATOM      1  C   UNL     1      34.494 -18.447 -22.878  0.00  0.00    -0.052 C 
ATOM      2  C   UNL     1      35.019 -19.041 -24.185  0.00  0.00    -0.023 C 
ENDROOT
BRANCH   1   3
ATOM      3  N   UNL     1      34.682 -19.437 -21.813  0.00  0.00    +0.395 N 
ATOM      4  C   UNL     1      35.882 -19.126 -21.038  0.00  0.00    -0.099 C 
ATOM      5  H   UNL     1      34.801 -20.356 -22.238  0.00  0.00    -0.078 HD
BRANCH   3   6
ATOM      6  C   UNL     1      33.506 -19.478 -20.945  0.00  0.00    +0.003 C 
BRANCH   6   7
ATOM      7  C   UNL     1      33.520 -20.677 -20.103  0.00  0.00    -0.101 C 
ATOM      8  C   UNL     1      33.535 -21.664 -19.417  0.00  0.00    -0.016 C 
ENDBRANCH   6   7
ENDBRANCH   3   6
ENDBRANCH   1   3
BRANCH   1   9
ATOM      9  C   UNL     1      35.209 -17.138 -22.495  0.00  0.00    +0.006 C 
BRANCH   9  10
ATOM     10  C   UNL     1      34.264 -16.001 -22.186  0.00  0.00    -0.024 C 
ATOM     11  C   UNL     1      33.871 -15.782 -20.876  0.00  0.00    -0.004 C 
ATOM     12  C   UNL     1      33.809 -15.197 -23.218  0.00  0.00    -0.004 C 
ATOM     13  C   UNL     1      32.998 -14.732 -20.589  0.00  0.00    -0.000 C 
ATOM     14  C   UNL     1      32.937 -14.146 -22.932  0.00  0.00    -0.000 C 
ATOM     15  C   UNL     1      32.532 -13.913 -21.618  0.00  0.00    -0.000 C 
ENDBRANCH   9  10
ENDBRANCH   1   9
TORSDOF 5
ENDMDL
MODEL 6
REMARK VINA RESULT:      -7.0      2.111      6.101
REMARK  Name = 26757
REMARK  5 active torsions:
REMARK  status: ('A' for Active; 'I' for Inactive)
REMARK    1  A    between atoms: C_1  and  N_3
REMARK    2  A    between atoms: C_1  and  C_9
REMARK    3  A    between atoms: N_3  and  C_6
REMARK    4  A    between atoms: C_6  and  C_7
REMARK    5  A    between atoms: C_9  and  C_10
REMARK                            x       y       z     vdW  Elec       q    Type
REMARK                         _______ _______ _______ _____ _____    ______ ____
ROOT
ATOM      1  C   UNL     1      34.300 -20.151 -20.216  0.00  0.00    -0.052 C 
ATOM      2  C   UNL     1      32.850 -20.392 -20.635  0.00  0.00    -0.023 C 
ENDROOT
BRANCH   1   3
ATOM      3  N   UNL     1      34.688 -21.201 -19.270  0.00  0.00    +0.395 N 
ATOM      4  C   UNL     1      33.965 -22.438 -19.560  0.00  0.00    -0.099 C 
ATOM      5  H   UNL     1      34.444 -20.898 -18.327  0.00  0.00    -0.078 HD
BRANCH   3   6
ATOM      6  C   UNL     1      36.131 -21.425 -19.324  0.00  0.00    +0.003 C 
BRANCH   6   7
ATOM      7  C   UNL     1      36.675 -21.657 -17.982  0.00  0.00    -0.101 C 
ATOM      8  C   UNL     1      37.115 -21.852 -16.881  0.00  0.00    -0.016 C 
ENDBRANCH   6   7
ENDBRANCH   3   6
ENDBRANCH   1   3
BRANCH   1   9
ATOM      9  C   UNL     1      35.268 -20.155 -21.413  0.00  0.00    +0.006 C 
BRANCH   9  10
ATOM     10  C   UNL     1      35.115 -18.956 -22.320  0.00  0.00    -0.024 C 
ATOM     11  C   UNL     1      34.840 -19.152 -23.663  0.00  0.00    -0.004 C 
ATOM     12  C   UNL     1      35.251 -17.683 -21.789  0.00  0.00    -0.004 C 
ATOM     13  C   UNL     1      34.699 -18.045 -24.501  0.00  0.00    -0.000 C 
ATOM     14  C   UNL     1      35.108 -16.576 -22.627  0.00  0.00    -0.000 C 
ATOM     15  C   UNL     1      34.832 -16.756 -23.981  0.00  0.00    -0.000 C 
ENDBRANCH   9  10
ENDBRANCH   1   9
TORSDOF 5
ENDMDL
MODEL 7
REMARK VINA RESULT:      -6.9      1.533      2.059
REMARK  Name = 26757
REMARK  5 active torsions:
REMARK  status: ('A' for Active; 'I' for Inactive)
REMARK    1  A    between atoms: C_1  and  N_3
REMARK    2  A    between atoms: C_1  and  C_9
REMARK    3  A    between atoms: N_3  and  C_6
REMARK    4  A    between atoms: C_6  and  C_7
REMARK    5  A    between atoms: C_9  and  C_10
REMARK                            x       y       z     vdW  Elec       q    Type
REMARK                         _______ _______ _______ _____ _____    ______ ____
ROOT
ATOM      1  C   UNL     1      35.275 -18.183 -21.335  0.00  0.00    -0.052 C 
ATOM      2  C   UNL     1      36.598 -18.374 -22.078  0.00  0.00    -0.023 C 
ENDROOT
BRANCH   1   3
ATOM      3  N   UNL     1      34.641 -16.957 -21.828  0.00  0.00    +0.395 N 
ATOM      4  C   UNL     1      34.588 -15.952 -20.769  0.00  0.00    -0.099 C 
ATOM      5  H   UNL     1      33.687 -17.175 -22.115  0.00  0.00    -0.078 HD
BRANCH   3   6
ATOM      6  C   UNL     1      35.367 -16.443 -22.988  0.00  0.00    +0.003 C 
BRANCH   6   7
ATOM      7  C   UNL     1      34.678 -16.795 -24.234  0.00  0.00    -0.101 C 
ATOM      8  C   UNL     1      34.108 -17.082 -25.251  0.00  0.00    -0.016 C 
ENDBRANCH   6   7
ENDBRANCH   3   6
ENDBRANCH   1   3
BRANCH   1   9
ATOM      9  C   UNL     1      34.315 -19.371 -21.525  0.00  0.00    +0.006 C 
BRANCH   9  10
ATOM     10  C   UNL     1      34.430 -20.421 -20.446  0.00  0.00    -0.024 C 
ATOM     11  C   UNL     1      35.681 -20.753 -19.952  0.00  0.00    -0.004 C 
ATOM     12  C   UNL     1      33.282 -21.034 -19.971  0.00  0.00    -0.004 C 
ATOM     13  C   UNL     1      35.788 -21.723 -18.955  0.00  0.00    -0.000 C 
ATOM     14  C   UNL     1      33.388 -22.004 -18.973  0.00  0.00    -0.000 C 
ATOM     15  C   UNL     1      34.640 -22.348 -18.465  0.00  0.00    -0.000 C 
ENDBRANCH   9  10
ENDBRANCH   1   9
TORSDOF 5
ENDMDL
MODEL 8
REMARK VINA RESULT:      -6.9      2.107      4.006
REMARK  Name = 26757
REMARK  5 active torsions:
REMARK  status: ('A' for Active; 'I' for Inactive)
REMARK    1  A    between atoms: C_1  and  N_3
REMARK    2  A    between atoms: C_1  and  C_9
REMARK    3  A    between atoms: N_3  and  C_6
REMARK    4  A    between atoms: C_6  and  C_7
REMARK    5  A    between atoms: C_9  and  C_10
REMARK                            x       y       z     vdW  Elec       q    Type
REMARK                         _______ _______ _______ _____ _____    ______ ____
ROOT
ATOM      1  C   UNL     1      32.907 -14.805 -22.035  0.00  0.00    -0.052 C 
ATOM      2  C   UNL     1      32.686 -14.219 -20.641  0.00  0.00    -0.023 C 
ENDROOT
BRANCH   1   3
ATOM      3  N   UNL     1      32.484 -13.811 -23.026  0.00  0.00    +0.395 N 
ATOM      4  C   UNL     1      32.176 -12.541 -22.371  0.00  0.00    -0.099 C 
ATOM      5  H   UNL     1      31.640 -14.148 -23.488  0.00  0.00    -0.078 HD
BRANCH   3   6
ATOM      6  C   UNL     1      33.523 -13.629 -24.038  0.00  0.00    +0.003 C 
BRANCH   6   7
ATOM      7  C   UNL     1      33.148 -14.282 -25.296  0.00  0.00    -0.101 C 
ATOM      8  C   UNL     1      32.834 -14.815 -26.326  0.00  0.00    -0.016 C 
ENDBRANCH   6   7
ENDBRANCH   3   6
ENDBRANCH   1   3
BRANCH   1   9
ATOM      9  C   UNL     1      34.376 -15.189 -22.287  0.00  0.00    +0.006 C 
BRANCH   9  10
ATOM     10  C   UNL     1      34.601 -16.678 -22.407  0.00  0.00    -0.024 C 
ATOM     11  C   UNL     1      34.574 -17.462 -21.265  0.00  0.00    -0.004 C 
ATOM     12  C   UNL     1      34.829 -17.231 -23.656  0.00  0.00    -0.004 C 
ATOM     13  C   UNL     1      34.781 -18.837 -21.375  0.00  0.00    -0.000 C 
ATOM     14  C   UNL     1      35.035 -18.607 -23.766  0.00  0.00    -0.000 C 
ATOM     15  C   UNL     1      35.011 -19.410 -22.627  0.00  0.00    -0.000 C 
ENDBRANCH   9  10
ENDBRANCH   1   9
TORSDOF 5
ENDMDL
MODEL 9
REMARK VINA RESULT:      -6.9      2.063      3.937
REMARK  Name = 26757
REMARK  5 active torsions:
REMARK  status: ('A' for Active; 'I' for Inactive)
REMARK    1  A    between atoms: C_1  and  N_3
REMARK    2  A    between atoms: C_1  and  C_9
REMARK    3  A    between atoms: N_3  and  C_6
REMARK    4  A    between atoms: C_6  and  C_7
REMARK    5  A    between atoms: C_9  and  C_10
REMARK                            x       y       z     vdW  Elec       q    Type
REMARK                         _______ _______ _______ _____ _____    ______ ____
ROOT
ATOM      1  C   UNL     1      33.285 -14.560 -23.026  0.00  0.00    -0.052 C 
ATOM      2  C   UNL     1      32.409 -13.727 -22.090  0.00  0.00    -0.023 C 
ENDROOT
BRANCH   1   3
ATOM      3  N   UNL     1      33.703 -13.711 -24.145  0.00  0.00    +0.395 N 
ATOM      4  C   UNL     1      33.039 -14.133 -25.377  0.00  0.00    -0.099 C 
ATOM      5  H   UNL     1      34.710 -13.809 -24.271  0.00  0.00    -0.078 HD
BRANCH   3   6
ATOM      6  C   UNL     1      33.407 -12.309 -23.856  0.00  0.00    +0.003 C 
BRANCH   6   7
ATOM      7  C   UNL     1      34.190 -11.421 -24.721  0.00  0.00    -0.101 C 
ATOM      8  C   UNL     1      34.836 -10.697 -25.429  0.00  0.00    -0.016 C 
ENDBRANCH   6   7
ENDBRANCH   3   6
ENDBRANCH   1   3
BRANCH   1   9
ATOM      9  C   UNL     1      34.529 -15.129 -22.319  0.00  0.00    +0.006 C 
BRANCH   9  10
ATOM     10  C   UNL     1      34.649 -16.631 -22.419  0.00  0.00    -0.024 C 
ATOM     11  C   UNL     1      34.526 -17.400 -21.274  0.00  0.00    -0.004 C 
ATOM     12  C   UNL     1      34.879 -17.212 -23.656  0.00  0.00    -0.004 C 
ATOM     13  C   UNL     1      34.637 -18.788 -21.366  0.00  0.00    -0.000 C 
ATOM     14  C   UNL     1      34.989 -18.600 -23.749  0.00  0.00    -0.000 C 
ATOM     15  C   UNL     1      34.868 -19.387 -22.605  0.00  0.00    -0.000 C 
ENDBRANCH   9  10
ENDBRANCH   1   9
TORSDOF 5
ENDMDL
