MODEL 1
REMARK VINA RESULT:     -11.0      0.000      0.000
REMARK  Name = 54682876
REMARK  5 active torsions:
REMARK  status: ('A' for Active; 'I' for Inactive)
REMARK    1  A    between atoms: C_5  and  C_15
REMARK    2  A    between atoms: C_6  and  O_27
REMARK    3  A    between atoms: C_8  and  O_29
REMARK    4  A    between atoms: N_14  and  C_17
REMARK    5  A    between atoms: C_20  and  C_26
REMARK                            x       y       z     vdW  Elec       q    Type
REMARK                         _______ _______ _______ _____ _____    ______ ____
ROOT
ATOM      1  O   UNL     1      33.853 -22.513 -15.614  0.00  0.00    -0.267 OA
ATOM      2  N   UNL     1      34.953 -23.928 -14.145  0.00  0.00    -0.293 N 
ATOM      3  C   UNL     1      36.175 -24.544 -13.733  0.00  0.00    +0.068 A 
ATOM      4  C   UNL     1      37.353 -24.276 -14.445  0.00  0.00    +0.084 A 
ATOM      5  C   UNL     1      36.163 -22.785 -15.983  0.00  0.00    +0.144 A 
ATOM      6  C   UNL     1      37.316 -23.365 -15.603  0.00  0.00    +0.147 A 
ATOM      7  C   UNL     1      34.890 -23.061 -15.235  0.00  0.00    +0.268 A 
ATOM      8  C   UNL     1      38.556 -24.886 -14.037  0.00  0.00    +0.143 C 
ATOM      9  C   UNL     1      36.227 -25.417 -12.629  0.00  0.00    +0.018 C 
ATOM     10  C   UNL     1      33.729 -24.216 -13.398  0.00  0.00    +0.134 C 
ATOM     11  C   UNL     1      38.591 -25.747 -12.943  0.00  0.00    +0.037 C 
ATOM     12  C   UNL     1      37.426 -26.013 -12.238  0.00  0.00    +0.005 C 
ENDROOT
BRANCH   5  15
ATOM     13  O   UNL     1      36.864 -20.872 -17.081  0.00  0.00    -0.269 OA
ATOM     14  N   UNL     1      35.231 -22.173 -18.170  0.00  0.00    -0.253 N 
ATOM     15  C   UNL     1      36.118 -21.852 -17.128  0.00  0.00    +0.260 C 
ATOM     16  C   UNL     1      34.384 -23.376 -18.115  0.00  0.00    +0.120 C 
BRANCH  14  17
ATOM     17  C   UNL     1      35.147 -21.297 -19.327  0.00  0.00    +0.054 C 
ATOM     18  C   UNL     1      33.901 -20.905 -19.816  0.00  0.00    +0.015 C 
ATOM     19  C   UNL     1      36.312 -20.850 -19.949  0.00  0.00    +0.015 C 
ATOM     20  C   UNL     1      34.987 -19.616 -21.548  0.00  0.00    +0.072 C 
ATOM     21  C   UNL     1      33.821 -20.063 -20.927  0.00  0.00    +0.005 C 
ATOM     22  C   UNL     1      36.233 -20.009 -21.059  0.00  0.00    +0.005 C 
BRANCH  20  26
ATOM     23  F   UNL     1      34.289 -17.530 -22.451  0.00  0.00    -0.166 F 
ATOM     24  F   UNL     1      36.116 -18.386 -23.260  0.00  0.00    -0.166 F 
ATOM     25  F   UNL     1      34.195 -19.251 -23.775  0.00  0.00    -0.166 F 
ATOM     26  C   UNL     1      34.900 -18.716 -22.735  0.00  0.00    +0.419 C 
ENDBRANCH  20  26
ENDBRANCH  14  17
ENDBRANCH   5  15
BRANCH   6  27
ATOM     27  O   UNL     1      38.521 -23.177 -16.250  0.00  0.00    -0.505 OA
ATOM     28  H   UNL     1      39.167 -22.610 -15.879  0.00  0.00    +0.292 HD
ENDBRANCH   6  27
BRANCH   8  29
ATOM     29  O   UNL     1      39.751 -24.682 -14.669  0.00  0.00    -0.471 OA
ATOM     30  C   UNL     1      40.551 -25.834 -14.916  0.00  0.00    +0.252 C 
ENDBRANCH   8  29
TORSDOF 5
ENDMDL
MODEL 2
REMARK VINA RESULT:     -10.2      9.263     13.104
REMARK  Name = 54682876
REMARK  5 active torsions:
REMARK  status: ('A' for Active; 'I' for Inactive)
REMARK    1  A    between atoms: C_5  and  C_15
REMARK    2  A    between atoms: C_6  and  O_27
REMARK    3  A    between atoms: C_8  and  O_29
REMARK    4  A    between atoms: N_14  and  C_17
REMARK    5  A    between atoms: C_20  and  C_26
REMARK                            x       y       z     vdW  Elec       q    Type
REMARK                         _______ _______ _______ _____ _____    ______ ____
ROOT
ATOM      1  O   UNL     1      32.712 -12.765 -26.243  0.00  0.00    -0.267 OA
ATOM      2  N   UNL     1      33.276 -14.990 -25.923  0.00  0.00    -0.293 N 
ATOM      3  C   UNL     1      33.831 -15.995 -25.072  0.00  0.00    +0.068 A 
ATOM      4  C   UNL     1      34.305 -15.633 -23.802  0.00  0.00    +0.084 A 
ATOM      5  C   UNL     1      33.698 -13.288 -24.170  0.00  0.00    +0.144 A 
ATOM      6  C   UNL     1      34.225 -14.228 -23.365  0.00  0.00    +0.147 A 
ATOM      7  C   UNL     1      33.187 -13.654 -25.533  0.00  0.00    +0.268 A 
ATOM      8  C   UNL     1      34.852 -16.626 -22.966  0.00  0.00    +0.143 C 
ATOM      9  C   UNL     1      33.915 -17.342 -25.476  0.00  0.00    +0.018 C 
ATOM     10  C   UNL     1      32.787 -15.375 -27.246  0.00  0.00    +0.134 C 
ATOM     11  C   UNL     1      34.929 -17.954 -23.380  0.00  0.00    +0.037 C 
ATOM     12  C   UNL     1      34.459 -18.312 -24.636  0.00  0.00    +0.005 C 
ENDROOT
BRANCH   5  15
ATOM     13  O   UNL     1      34.452 -11.100 -24.140  0.00  0.00    -0.269 OA
ATOM     14  N   UNL     1      32.510 -11.560 -22.891  0.00  0.00    -0.253 N 
ATOM     15  C   UNL     1      33.591 -11.880 -23.732  0.00  0.00    +0.260 C 
ATOM     16  C   UNL     1      31.539 -12.582 -22.465  0.00  0.00    +0.120 C 
BRANCH  14  17
ATOM     17  C   UNL     1      32.348 -10.191 -22.433  0.00  0.00    +0.054 C 
ATOM     18  C   UNL     1      32.218  -9.922 -21.070  0.00  0.00    +0.015 C 
ATOM     19  C   UNL     1      32.321  -9.145 -23.355  0.00  0.00    +0.015 C 
ATOM     20  C   UNL     1      32.036  -7.562 -21.554  0.00  0.00    +0.072 C 
ATOM     21  C   UNL     1      32.063  -8.607 -20.631  0.00  0.00    +0.005 C 
ATOM     22  C   UNL     1      32.166  -7.831 -22.916  0.00  0.00    +0.005 C 
BRANCH  20  26
ATOM     23  F   UNL     1      32.544  -5.909 -19.922  0.00  0.00    -0.166 F 
ATOM     24  F   UNL     1      32.321  -5.224 -21.973  0.00  0.00    -0.166 F 
ATOM     25  F   UNL     1      30.573  -5.813 -20.833  0.00  0.00    -0.166 F 
ATOM     26  C   UNL     1      31.871  -6.156 -21.082  0.00  0.00    +0.419 C 
ENDBRANCH  20  26
ENDBRANCH  14  17
ENDBRANCH   5  15
BRANCH   6  27
ATOM     27  O   UNL     1      34.733 -13.969 -22.107  0.00  0.00    -0.505 OA
ATOM     28  H   UNL     1      35.163 -13.155 -21.935  0.00  0.00    +0.292 HD
ENDBRANCH   6  27
BRANCH   8  29
ATOM     29  O   UNL     1      35.337 -16.368 -21.714  0.00  0.00    -0.471 OA
ATOM     30  C   UNL     1      35.330 -17.449 -20.787  0.00  0.00    +0.252 C 
ENDBRANCH   8  29
TORSDOF 5
ENDMDL
MODEL 3
REMARK VINA RESULT:      -9.9      4.651      9.983
REMARK  Name = 54682876
REMARK  5 active torsions:
REMARK  status: ('A' for Active; 'I' for Inactive)
REMARK    1  A    between atoms: C_5  and  C_15
REMARK    2  A    between atoms: C_6  and  O_27
REMARK    3  A    between atoms: C_8  and  O_29
REMARK    4  A    between atoms: N_14  and  C_17
REMARK    5  A    between atoms: C_20  and  C_26
REMARK                            x       y       z     vdW  Elec       q    Type
REMARK                         _______ _______ _______ _____ _____    ______ ____
ROOT
ATOM      1  O   UNL     1      35.285 -20.417 -23.300  0.00  0.00    -0.267 OA
ATOM      2  N   UNL     1      34.656 -18.379 -24.209  0.00  0.00    -0.293 N 
ATOM      3  C   UNL     1      34.383 -16.991 -24.011  0.00  0.00    +0.068 A 
ATOM      4  C   UNL     1      34.499 -16.445 -22.725  0.00  0.00    +0.084 A 
ATOM      5  C   UNL     1      35.162 -18.612 -21.793  0.00  0.00    +0.144 A 
ATOM      6  C   UNL     1      34.902 -17.306 -21.599  0.00  0.00    +0.147 A 
ATOM      7  C   UNL     1      35.040 -19.216 -23.162  0.00  0.00    +0.268 A 
ATOM      8  C   UNL     1      34.228 -15.076 -22.533  0.00  0.00    +0.143 C 
ATOM      9  C   UNL     1      33.997 -16.154 -25.077  0.00  0.00    +0.018 C 
ATOM     10  C   UNL     1      34.529 -18.941 -25.553  0.00  0.00    +0.134 C 
ATOM     11  C   UNL     1      33.847 -14.262 -23.597  0.00  0.00    +0.037 C 
ATOM     12  C   UNL     1      33.732 -14.801 -24.870  0.00  0.00    +0.005 C 
ENDROOT
BRANCH   5  15
ATOM     13  O   UNL     1      36.762 -19.389 -20.312  0.00  0.00    -0.269 OA
ATOM     14  N   UNL     1      34.611 -20.327 -20.124  0.00  0.00    -0.253 N 
ATOM     15  C   UNL     1      35.589 -19.480 -20.675  0.00  0.00    +0.260 C 
ATOM     16  C   UNL     1      33.233 -20.351 -20.644  0.00  0.00    +0.120 C 
BRANCH  14  17
ATOM     17  C   UNL     1      34.968 -21.200 -19.018  0.00  0.00    +0.054 C 
ATOM     18  C   UNL     1      36.272 -21.201 -18.524  0.00  0.00    +0.015 C 
ATOM     19  C   UNL     1      34.007 -22.036 -18.451  0.00  0.00    +0.015 C 
ATOM     20  C   UNL     1      35.652 -22.874 -16.894  0.00  0.00    +0.072 C 
ATOM     21  C   UNL     1      36.614 -22.039 -17.461  0.00  0.00    +0.005 C 
ATOM     22  C   UNL     1      34.348 -22.872 -17.389  0.00  0.00    +0.005 C 
BRANCH  20  26
ATOM     23  F   UNL     1      35.784 -23.195 -14.542  0.00  0.00    -0.166 F 
ATOM     24  F   UNL     1      35.332 -24.948 -15.746  0.00  0.00    -0.166 F 
ATOM     25  F   UNL     1      37.337 -24.124 -15.746  0.00  0.00    -0.166 F 
ATOM     26  C   UNL     1      36.019 -23.768 -15.758  0.00  0.00    +0.419 C 
ENDBRANCH  20  26
ENDBRANCH  14  17
ENDBRANCH   5  15
BRANCH   6  27
ATOM     27  O   UNL     1      34.972 -16.682 -20.369  0.00  0.00    -0.505 OA
ATOM     28  H   UNL     1      34.187 -16.438 -19.923  0.00  0.00    +0.292 HD
ENDBRANCH   6  27
BRANCH   8  29
ATOM     29  O   UNL     1      34.317 -14.458 -21.317  0.00  0.00    -0.471 OA
ATOM     30  C   UNL     1      33.103 -13.974 -20.752  0.00  0.00    +0.252 C 
ENDBRANCH   8  29
TORSDOF 5
ENDMDL
MODEL 4
REMARK VINA RESULT:      -9.8      9.012     12.975
REMARK  Name = 54682876
REMARK  5 active torsions:
REMARK  status: ('A' for Active; 'I' for Inactive)
REMARK    1  A    between atoms: C_5  and  C_15
REMARK    2  A    between atoms: C_6  and  O_27
REMARK    3  A    between atoms: C_8  and  O_29
REMARK    4  A    between atoms: N_14  and  C_17
REMARK    5  A    between atoms: C_20  and  C_26
REMARK                            x       y       z     vdW  Elec       q    Type
REMARK                         _______ _______ _______ _____ _____    ______ ____
ROOT
ATOM      1  O   UNL     1      32.145 -13.230 -25.828  0.00  0.00    -0.267 OA
ATOM      2  N   UNL     1      33.147 -15.315 -25.676  0.00  0.00    -0.293 N 
ATOM      3  C   UNL     1      33.877 -16.260 -24.891  0.00  0.00    +0.068 A 
ATOM      4  C   UNL     1      34.239 -15.927 -23.577  0.00  0.00    +0.084 A 
ATOM      5  C   UNL     1      33.171 -13.730 -23.768  0.00  0.00    +0.144 A 
ATOM      6  C   UNL     1      33.862 -14.614 -23.025  0.00  0.00    +0.147 A 
ATOM      7  C   UNL     1      32.776 -14.066 -25.177  0.00  0.00    +0.268 A 
ATOM      8  C   UNL     1      34.959 -16.861 -22.807  0.00  0.00    +0.143 C 
ATOM      9  C   UNL     1      34.244 -17.519 -25.404  0.00  0.00    +0.018 C 
ATOM     10  C   UNL     1      32.776 -15.668 -27.045  0.00  0.00    +0.134 C 
ATOM     11  C   UNL     1      35.316 -18.103 -23.329  0.00  0.00    +0.037 C 
ATOM     12  C   UNL     1      34.958 -18.432 -24.628  0.00  0.00    +0.005 C 
ENDROOT
BRANCH   5  15
ATOM     13  O   UNL     1      31.951 -12.427 -22.295  0.00  0.00    -0.269 OA
ATOM     14  N   UNL     1      33.360 -11.282 -23.794  0.00  0.00    -0.253 N 
ATOM     15  C   UNL     1      32.768 -12.420 -23.217  0.00  0.00    +0.260 C 
ATOM     16  C   UNL     1      34.328 -11.396 -24.898  0.00  0.00    +0.120 C 
BRANCH  14  17
ATOM     17  C   UNL     1      33.009  -9.965 -23.290  0.00  0.00    +0.054 C 
ATOM     18  C   UNL     1      31.720  -9.720 -22.816  0.00  0.00    +0.015 C 
ATOM     19  C   UNL     1      33.961  -8.946 -23.281  0.00  0.00    +0.015 C 
ATOM     20  C   UNL     1      32.336  -7.437 -22.323  0.00  0.00    +0.072 C 
ATOM     21  C   UNL     1      31.384  -8.455 -22.332  0.00  0.00    +0.005 C 
ATOM     22  C   UNL     1      33.625  -7.682 -22.797  0.00  0.00    +0.005 C 
BRANCH  20  26
ATOM     23  F   UNL     1      32.433  -5.077 -22.602  0.00  0.00    -0.166 F 
ATOM     24  F   UNL     1      30.630  -5.883 -21.693  0.00  0.00    -0.166 F 
ATOM     25  F   UNL     1      32.479  -5.825 -20.562  0.00  0.00    -0.166 F 
ATOM     26  C   UNL     1      31.976  -6.085 -21.804  0.00  0.00    +0.419 C 
ENDBRANCH  20  26
ENDBRANCH  14  17
ENDBRANCH   5  15
BRANCH   6  27
ATOM     27  O   UNL     1      34.277 -14.373 -21.731  0.00  0.00    -0.505 OA
ATOM     28  H   UNL     1      35.148 -14.596 -21.470  0.00  0.00    +0.292 HD
ENDBRANCH   6  27
BRANCH   8  29
ATOM     29  O   UNL     1      35.352 -16.626 -21.519  0.00  0.00    -0.471 OA
ATOM     30  C   UNL     1      35.548 -17.766 -20.688  0.00  0.00    +0.252 C 
ENDBRANCH   8  29
TORSDOF 5
ENDMDL
MODEL 5
REMARK VINA RESULT:      -9.7      9.998     13.388
REMARK  Name = 54682876
REMARK  5 active torsions:
REMARK  status: ('A' for Active; 'I' for Inactive)
REMARK    1  A    between atoms: C_5  and  C_15
REMARK    2  A    between atoms: C_6  and  O_27
REMARK    3  A    between atoms: C_8  and  O_29
REMARK    4  A    between atoms: N_14  and  C_17
REMARK    5  A    between atoms: C_20  and  C_26
REMARK                            x       y       z     vdW  Elec       q    Type
REMARK                         _______ _______ _______ _____ _____    ______ ____
ROOT
ATOM      1  O   UNL     1      33.211 -13.477 -20.385  0.00  0.00    -0.267 OA
ATOM      2  N   UNL     1      33.992 -15.294 -21.594  0.00  0.00    -0.293 N 
ATOM      3  C   UNL     1      34.185 -15.919 -22.864  0.00  0.00    +0.068 A 
ATOM      4  C   UNL     1      33.754 -15.260 -24.025  0.00  0.00    +0.084 A 
ATOM      5  C   UNL     1      32.938 -13.354 -22.721  0.00  0.00    +0.144 A 
ATOM      6  C   UNL     1      33.112 -13.938 -23.920  0.00  0.00    +0.147 A 
ATOM      7  C   UNL     1      33.389 -14.043 -21.466  0.00  0.00    +0.268 A 
ATOM      8  C   UNL     1      33.945 -15.880 -25.276  0.00  0.00    +0.143 C 
ATOM      9  C   UNL     1      34.797 -17.183 -22.982  0.00  0.00    +0.018 C 
ATOM     10  C   UNL     1      34.442 -15.989 -20.388  0.00  0.00    +0.134 C 
ATOM     11  C   UNL     1      34.551 -17.130 -25.376  0.00  0.00    +0.037 C 
ATOM     12  C   UNL     1      34.978 -17.782 -24.227  0.00  0.00    +0.005 C 
ENDROOT
BRANCH   5  15
ATOM     13  O   UNL     1      31.196 -11.964 -22.096  0.00  0.00    -0.269 OA
ATOM     14  N   UNL     1      33.065 -10.929 -23.085  0.00  0.00    -0.253 N 
ATOM     15  C   UNL     1      32.316 -12.018 -22.606  0.00  0.00    +0.260 C 
ATOM     16  C   UNL     1      34.400 -11.116 -23.679  0.00  0.00    +0.120 C 
BRANCH  14  17
ATOM     17  C   UNL     1      32.511  -9.589 -22.994  0.00  0.00    +0.054 C 
ATOM     18  C   UNL     1      32.545  -8.901 -21.780  0.00  0.00    +0.015 C 
ATOM     19  C   UNL     1      31.944  -8.990 -24.119  0.00  0.00    +0.015 C 
ATOM     20  C   UNL     1      31.446  -7.016 -22.818  0.00  0.00    +0.072 C 
ATOM     21  C   UNL     1      32.013  -7.614 -21.693  0.00  0.00    +0.005 C 
ATOM     22  C   UNL     1      31.412  -7.704 -24.031  0.00  0.00    +0.005 C 
BRANCH  20  26
ATOM     23  F   UNL     1      30.494  -5.146 -23.935  0.00  0.00    -0.166 F 
ATOM     24  F   UNL     1      29.772  -5.558 -21.927  0.00  0.00    -0.166 F 
ATOM     25  F   UNL     1      31.752  -4.722 -22.215  0.00  0.00    -0.166 F 
ATOM     26  C   UNL     1      30.878  -5.640 -22.723  0.00  0.00    +0.419 C 
ENDBRANCH  20  26
ENDBRANCH  14  17
ENDBRANCH   5  15
BRANCH   6  27
ATOM     27  O   UNL     1      32.707 -13.378 -25.115  0.00  0.00    -0.505 OA
ATOM     28  H   UNL     1      33.230 -12.717 -25.523  0.00  0.00    +0.292 HD
ENDBRANCH   6  27
BRANCH   8  29
ATOM     29  O   UNL     1      33.559 -15.313 -26.459  0.00  0.00    -0.471 OA
ATOM     30  C   UNL     1      32.347 -15.790 -27.035  0.00  0.00    +0.252 C 
ENDBRANCH   8  29
TORSDOF 5
ENDMDL
MODEL 6
REMARK VINA RESULT:      -9.3      6.677     11.972
REMARK  Name = 54682876
REMARK  5 active torsions:
REMARK  status: ('A' for Active; 'I' for Inactive)
REMARK    1  A    between atoms: C_5  and  C_15
REMARK    2  A    between atoms: C_6  and  O_27
REMARK    3  A    between atoms: C_8  and  O_29
REMARK    4  A    between atoms: N_14  and  C_17
REMARK    5  A    between atoms: C_20  and  C_26
REMARK                            x       y       z     vdW  Elec       q    Type
REMARK                         _______ _______ _______ _____ _____    ______ ____
ROOT
ATOM      1  O   UNL     1      33.507 -15.418 -24.323  0.00  0.00    -0.267 OA
ATOM      2  N   UNL     1      33.128 -13.134 -24.201  0.00  0.00    -0.293 N 
ATOM      3  C   UNL     1      32.753 -12.004 -23.412  0.00  0.00    +0.068 A 
ATOM      4  C   UNL     1      32.428 -12.187 -22.060  0.00  0.00    +0.084 A 
ATOM      5  C   UNL     1      32.836 -14.598 -22.220  0.00  0.00    +0.144 A 
ATOM      6  C   UNL     1      32.478 -13.538 -21.473  0.00  0.00    +0.147 A 
ATOM      7  C   UNL     1      33.186 -14.423 -23.670  0.00  0.00    +0.268 A 
ATOM      8  C   UNL     1      32.058 -11.070 -21.286  0.00  0.00    +0.143 C 
ATOM      9  C   UNL     1      32.701 -10.706 -23.958  0.00  0.00    +0.018 C 
ATOM     10  C   UNL     1      33.463 -12.935 -25.610  0.00  0.00    +0.134 C 
ATOM     11  C   UNL     1      32.010  -9.793 -21.841  0.00  0.00    +0.037 C 
ATOM     12  C   UNL     1      32.332  -9.611 -23.178  0.00  0.00    +0.005 C 
ENDROOT
BRANCH   5  15
ATOM     13  O   UNL     1      31.906 -16.372 -21.062  0.00  0.00    -0.269 OA
ATOM     14  N   UNL     1      34.127 -16.643 -21.795  0.00  0.00    -0.253 N 
ATOM     15  C   UNL     1      32.912 -15.953 -21.636  0.00  0.00    +0.260 C 
ATOM     16  C   UNL     1      35.267 -16.037 -22.503  0.00  0.00    +0.120 C 
BRANCH  14  17
ATOM     17  C   UNL     1      34.260 -17.983 -21.248  0.00  0.00    +0.054 C 
ATOM     18  C   UNL     1      35.527 -18.532 -21.049  0.00  0.00    +0.015 C 
ATOM     19  C   UNL     1      33.122 -18.720 -20.923  0.00  0.00    +0.015 C 
ATOM     20  C   UNL     1      34.516 -20.555 -20.198  0.00  0.00    +0.072 C 
ATOM     21  C   UNL     1      35.655 -19.818 -20.523  0.00  0.00    +0.005 C 
ATOM     22  C   UNL     1      33.250 -20.005 -20.398  0.00  0.00    +0.005 C 
BRANCH  20  26
ATOM     23  F   UNL     1      35.633 -22.653 -20.251  0.00  0.00    -0.166 F 
ATOM     24  F   UNL     1      34.966 -21.948 -18.306  0.00  0.00    -0.166 F 
ATOM     25  F   UNL     1      33.520 -22.681 -19.746  0.00  0.00    -0.166 F 
ATOM     26  C   UNL     1      34.654 -21.929 -19.636  0.00  0.00    +0.419 C 
ENDBRANCH  20  26
ENDBRANCH  14  17
ENDBRANCH   5  15
BRANCH   6  27
ATOM     27  O   UNL     1      32.125 -13.619 -20.141  0.00  0.00    -0.505 OA
ATOM     28  H   UNL     1      32.695 -14.041 -19.530  0.00  0.00    +0.292 HD
ENDBRANCH   6  27
BRANCH   8  29
ATOM     29  O   UNL     1      31.727 -11.153 -19.962  0.00  0.00    -0.471 OA
ATOM     30  C   UNL     1      31.951  -9.990 -19.170  0.00  0.00    +0.252 C 
ENDBRANCH   8  29
TORSDOF 5
ENDMDL
MODEL 7
REMARK VINA RESULT:      -9.1     13.254     18.459
REMARK  Name = 54682876
REMARK  5 active torsions:
REMARK  status: ('A' for Active; 'I' for Inactive)
REMARK    1  A    between atoms: C_5  and  C_15
REMARK    2  A    between atoms: C_6  and  O_27
REMARK    3  A    between atoms: C_8  and  O_29
REMARK    4  A    between atoms: N_14  and  C_17
REMARK    5  A    between atoms: C_20  and  C_26
REMARK                            x       y       z     vdW  Elec       q    Type
REMARK                         _______ _______ _______ _____ _____    ______ ____
ROOT
ATOM      1  O   UNL     1      31.101  -5.644 -21.616  0.00  0.00    -0.267 OA
ATOM      2  N   UNL     1      31.211  -3.991 -23.237  0.00  0.00    -0.293 N 
ATOM      3  C   UNL     1      31.697  -3.567 -24.512  0.00  0.00    +0.068 A 
ATOM      4  C   UNL     1      32.503  -4.436 -25.263  0.00  0.00    +0.084 A 
ATOM      5  C   UNL     1      32.368  -6.164 -23.531  0.00  0.00    +0.144 A 
ATOM      6  C   UNL     1      32.833  -5.770 -24.730  0.00  0.00    +0.147 A 
ATOM      7  C   UNL     1      31.507  -5.248 -22.711  0.00  0.00    +0.268 A 
ATOM      8  C   UNL     1      32.981  -4.015 -26.519  0.00  0.00    +0.143 C 
ATOM      9  C   UNL     1      31.390  -2.296 -25.035  0.00  0.00    +0.018 C 
ATOM     10  C   UNL     1      30.374  -3.078 -22.460  0.00  0.00    +0.134 C 
ATOM     11  C   UNL     1      32.669  -2.753 -27.022  0.00  0.00    +0.037 C 
ATOM     12  C   UNL     1      31.873  -1.894 -26.279  0.00  0.00    +0.005 C 
ENDROOT
BRANCH   5  15
ATOM     13  O   UNL     1      33.727  -7.635 -22.371  0.00  0.00    -0.269 OA
ATOM     14  N   UNL     1      31.731  -8.519 -23.251  0.00  0.00    -0.253 N 
ATOM     15  C   UNL     1      32.674  -7.508 -22.998  0.00  0.00    +0.260 C 
ATOM     16  C   UNL     1      30.502  -8.249 -24.018  0.00  0.00    +0.120 C 
BRANCH  14  17
ATOM     17  C   UNL     1      31.972  -9.860 -22.747  0.00  0.00    +0.054 C 
ATOM     18  C   UNL     1      32.777 -10.742 -23.467  0.00  0.00    +0.015 C 
ATOM     19  C   UNL     1      31.399 -10.266 -21.541  0.00  0.00    +0.015 C 
ATOM     20  C   UNL     1      32.436 -12.434 -21.776  0.00  0.00    +0.072 C 
ATOM     21  C   UNL     1      33.010 -12.030 -22.981  0.00  0.00    +0.005 C 
ATOM     22  C   UNL     1      31.631 -11.552 -21.056  0.00  0.00    +0.005 C 
BRANCH  20  26
ATOM     23  F   UNL     1      32.299 -13.961 -19.958  0.00  0.00    -0.166 F 
ATOM     24  F   UNL     1      32.026 -14.784 -21.951  0.00  0.00    -0.166 F 
ATOM     25  F   UNL     1      34.001 -14.177 -21.293  0.00  0.00    -0.166 F 
ATOM     26  C   UNL     1      32.686 -13.811 -21.258  0.00  0.00    +0.419 C 
ENDBRANCH  20  26
ENDBRANCH  14  17
ENDBRANCH   5  15
BRANCH   6  27
ATOM     27  O   UNL     1      33.645  -6.545 -25.534  0.00  0.00    -0.505 OA
ATOM     28  H   UNL     1      33.905  -7.399 -25.251  0.00  0.00    +0.292 HD
ENDBRANCH   6  27
BRANCH   8  29
ATOM     29  O   UNL     1      33.770  -4.793 -27.320  0.00  0.00    -0.471 OA
ATOM     30  C   UNL     1      34.983  -4.212 -27.787  0.00  0.00    +0.252 C 
ENDBRANCH   8  29
TORSDOF 5
ENDMDL
MODEL 8
REMARK VINA RESULT:      -8.9     12.559     15.774
REMARK  Name = 54682876
REMARK  5 active torsions:
REMARK  status: ('A' for Active; 'I' for Inactive)
REMARK    1  A    between atoms: C_5  and  C_15
REMARK    2  A    between atoms: C_6  and  O_27
REMARK    3  A    between atoms: C_8  and  O_29
REMARK    4  A    between atoms: N_14  and  C_17
REMARK    5  A    between atoms: C_20  and  C_26
REMARK                            x       y       z     vdW  Elec       q    Type
REMARK                         _______ _______ _______ _____ _____    ______ ____
ROOT
ATOM      1  O   UNL     1      31.940 -10.080 -20.378  0.00  0.00    -0.267 OA
ATOM      2  N   UNL     1      32.328 -12.203 -21.224  0.00  0.00    -0.293 N 
ATOM      3  C   UNL     1      32.737 -13.019 -22.323  0.00  0.00    +0.068 A 
ATOM      4  C   UNL     1      33.107 -12.409 -23.531  0.00  0.00    +0.084 A 
ATOM      5  C   UNL     1      32.688 -10.177 -22.609  0.00  0.00    +0.144 A 
ATOM      6  C   UNL     1      33.070 -10.940 -23.649  0.00  0.00    +0.147 A 
ATOM      7  C   UNL     1      32.286 -10.811 -21.308  0.00  0.00    +0.268 A 
ATOM      8  C   UNL     1      33.509 -13.216 -24.613  0.00  0.00    +0.143 C 
ATOM      9  C   UNL     1      32.777 -14.424 -22.226  0.00  0.00    +0.018 C 
ATOM     10  C   UNL     1      31.942 -12.847 -19.970  0.00  0.00    +0.134 C 
ATOM     11  C   UNL     1      33.543 -14.605 -24.501  0.00  0.00    +0.037 C 
ATOM     12  C   UNL     1      33.177 -15.208 -23.307  0.00  0.00    +0.005 C 
ENDROOT
BRANCH   5  15
ATOM     13  O   UNL     1      33.730  -8.114 -22.490  0.00  0.00    -0.269 OA
ATOM     14  N   UNL     1      31.443  -8.108 -23.051  0.00  0.00    -0.253 N 
ATOM     15  C   UNL     1      32.670  -8.703 -22.709  0.00  0.00    +0.260 C 
ATOM     16  C   UNL     1      30.236  -8.918 -23.289  0.00  0.00    +0.120 C 
BRANCH  14  17
ATOM     17  C   UNL     1      31.363  -6.662 -23.172  0.00  0.00    +0.054 C 
ATOM     18  C   UNL     1      31.661  -6.046 -24.387  0.00  0.00    +0.015 C 
ATOM     19  C   UNL     1      30.989  -5.890 -22.072  0.00  0.00    +0.015 C 
ATOM     20  C   UNL     1      31.209  -3.886 -23.403  0.00  0.00    +0.072 C 
ATOM     21  C   UNL     1      31.583  -4.657 -24.503  0.00  0.00    +0.005 C 
ATOM     22  C   UNL     1      30.911  -4.502 -22.188  0.00  0.00    +0.005 C 
BRANCH  20  26
ATOM     23  F   UNL     1      30.508  -2.006 -24.679  0.00  0.00    -0.166 F 
ATOM     24  F   UNL     1      30.431  -1.806 -22.515  0.00  0.00    -0.166 F 
ATOM     25  F   UNL     1      32.344  -1.786 -23.536  0.00  0.00    -0.166 F 
ATOM     26  C   UNL     1      31.126  -2.402 -23.528  0.00  0.00    +0.419 C 
ENDBRANCH  20  26
ENDBRANCH  14  17
ENDBRANCH   5  15
BRANCH   6  27
ATOM     27  O   UNL     1      33.435 -10.435 -24.881  0.00  0.00    -0.505 OA
ATOM     28  H   UNL     1      32.782 -10.099 -25.461  0.00  0.00    +0.292 HD
ENDBRANCH   6  27
BRANCH   8  29
ATOM     29  O   UNL     1      33.887 -12.711 -25.825  0.00  0.00    -0.471 OA
ATOM     30  C   UNL     1      33.333 -13.331 -26.981  0.00  0.00    +0.252 C 
ENDBRANCH   8  29
TORSDOF 5
ENDMDL
MODEL 9
REMARK VINA RESULT:      -8.7      1.075      3.052
REMARK  Name = 54682876
REMARK  5 active torsions:
REMARK  status: ('A' for Active; 'I' for Inactive)
REMARK    1  A    between atoms: C_5  and  C_15
REMARK    2  A    between atoms: C_6  and  O_27
REMARK    3  A    between atoms: C_8  and  O_29
REMARK    4  A    between atoms: N_14  and  C_17
REMARK    5  A    between atoms: C_20  and  C_26
REMARK                            x       y       z     vdW  Elec       q    Type
REMARK                         _______ _______ _______ _____ _____    ______ ____
ROOT
ATOM      1  O   UNL     1      38.932 -23.232 -16.416  0.00  0.00    -0.267 OA
ATOM      2  N   UNL     1      38.155 -24.270 -14.494  0.00  0.00    -0.293 N 
ATOM      3  C   UNL     1      37.093 -24.458 -13.557  0.00  0.00    +0.068 A 
ATOM      4  C   UNL     1      35.889 -23.760 -13.735  0.00  0.00    +0.084 A 
ATOM      5  C   UNL     1      36.738 -22.679 -15.763  0.00  0.00    +0.144 A 
ATOM      6  C   UNL     1      35.735 -22.848 -14.882  0.00  0.00    +0.147 A 
ATOM      7  C   UNL     1      38.035 -23.414 -15.589  0.00  0.00    +0.268 A 
ATOM      8  C   UNL     1      34.844 -23.947 -12.808  0.00  0.00    +0.143 C 
ATOM      9  C   UNL     1      37.224 -25.326 -12.456  0.00  0.00    +0.018 C 
ATOM     10  C   UNL     1      39.407 -24.999 -14.300  0.00  0.00    +0.134 C 
ATOM     11  C   UNL     1      34.990 -24.809 -11.724  0.00  0.00    +0.037 C 
ATOM     12  C   UNL     1      36.180 -25.500 -11.548  0.00  0.00    +0.005 C 
ENDROOT
BRANCH   5  15
ATOM     13  O   UNL     1      37.299 -20.780 -16.961  0.00  0.00    -0.269 OA
ATOM     14  N   UNL     1      35.645 -22.166 -17.901  0.00  0.00    -0.253 N 
ATOM     15  C   UNL     1      36.587 -21.784 -16.930  0.00  0.00    +0.260 C 
ATOM     16  C   UNL     1      34.846 -23.395 -17.755  0.00  0.00    +0.120 C 
BRANCH  14  17
ATOM     17  C   UNL     1      35.455 -21.331 -19.075  0.00  0.00    +0.054 C 
ATOM     18  C   UNL     1      34.169 -21.077 -19.550  0.00  0.00    +0.015 C 
ATOM     19  C   UNL     1      36.560 -20.783 -19.726  0.00  0.00    +0.015 C 
ATOM     20  C   UNL     1      35.093 -19.726 -21.328  0.00  0.00    +0.072 C 
ATOM     21  C   UNL     1      33.988 -20.274 -20.677  0.00  0.00    +0.005 C 
ATOM     22  C   UNL     1      36.379 -19.980 -20.852  0.00  0.00    +0.005 C 
BRANCH  20  26
ATOM     23  F   UNL     1      36.076 -18.495 -23.109  0.00  0.00    -0.166 F 
ATOM     24  F   UNL     1      34.179 -19.471 -23.524  0.00  0.00    -0.166 F 
ATOM     25  F   UNL     1      34.234 -17.703 -22.270  0.00  0.00    -0.166 F 
ATOM     26  C   UNL     1      34.897 -18.867 -22.532  0.00  0.00    +0.419 C 
ENDBRANCH  20  26
ENDBRANCH  14  17
ENDBRANCH   5  15
BRANCH   6  27
ATOM     27  O   UNL     1      34.522 -22.194 -14.962  0.00  0.00    -0.505 OA
ATOM     28  H   UNL     1      34.282 -21.748 -15.749  0.00  0.00    +0.292 HD
ENDBRANCH   6  27
BRANCH   8  29
ATOM     29  O   UNL     1      33.638 -23.312 -12.902  0.00  0.00    -0.471 OA
ATOM     30  C   UNL     1      32.544 -24.081 -13.394  0.00  0.00    +0.252 C 
ENDBRANCH   8  29
TORSDOF 5
ENDMDL
