MODEL 1
REMARK VINA RESULT:     -10.9      0.000      0.000
REMARK  Name = 23645698
REMARK  6 active torsions:
REMARK  status: ('A' for Active; 'I' for Inactive)
REMARK    1  A    between atoms: C_4  and  C_16
REMARK    2  A    between atoms: C_5  and  C_6
REMARK    3  A    between atoms: C_7  and  S_12
REMARK    4  A    between atoms: C_16  and  C_18
REMARK    5  A    between atoms: C_18  and  C_25
REMARK    6  A    between atoms: C_18  and  N_26
REMARK                            x       y       z     vdW  Elec       q    Type
REMARK                         _______ _______ _______ _____ _____    ______ ____
ROOT
ATOM      1  O   UNL     1      33.363 -22.390 -19.513  0.00  0.00    -0.316 OA
ATOM      2  N   UNL     1      35.170 -21.362 -18.680  0.00  0.00    -0.313 NA
ATOM      3  N   UNL     1      33.689 -23.072 -18.333  0.00  0.00    -0.007 NA
ATOM      4  C   UNL     1      34.289 -21.435 -19.593  0.00  0.00    +0.292 C 
ATOM      5  C   UNL     1      34.765 -22.406 -17.900  0.00  0.00    +0.127 C 
ENDROOT
BRANCH   5   6
ATOM      6  C   UNL     1      35.457 -22.758 -16.694  0.00  0.00    +0.077 C 
ATOM      7  C   UNL     1      36.805 -23.442 -14.348  0.00  0.00    +0.106 C 
ATOM      8  C   UNL     1      36.800 -22.413 -16.534  0.00  0.00    +0.012 C 
ATOM      9  C   UNL     1      34.790 -23.446 -15.680  0.00  0.00    +0.012 C 
ATOM     10  C   UNL     1      37.474 -22.755 -15.361  0.00  0.00    +0.019 C 
ATOM     11  C   UNL     1      35.463 -23.787 -14.507  0.00  0.00    +0.019 C 
BRANCH   7  12
ATOM     12  S   UNL     1      37.649 -23.869 -12.880  0.00  0.00    +0.010 S 
ATOM     13  O   UNL     1      38.821 -24.651 -13.246  0.00  0.00    -0.169 OA
ATOM     14  O   UNL     1      37.805 -22.673 -12.062  0.00  0.00    -0.169 OA
ATOM     15  C   UNL     1      36.523 -24.941 -12.018  0.00  0.00    +0.182 C 
ENDBRANCH   7  12
ENDBRANCH   5   6
BRANCH   4  16
ATOM     16  C   UNL     1      34.152 -20.534 -20.822  0.00  0.00    +0.081 C 
ATOM     17  C   UNL     1      32.992 -19.545 -20.623  0.00  0.00    +0.009 C 
BRANCH  16  18
ATOM     18  C   UNL     1      35.479 -19.819 -21.158  0.00  0.00    +0.023 C 
BRANCH  18  25
ATOM     19  O   UNL     1      35.273 -17.498 -20.660  0.00  0.00    -0.277 OA
ATOM     20  N   UNL     1      34.959 -18.138 -22.858  0.00  0.00    -0.281 N 
ATOM     21  C   UNL     1      34.899 -19.130 -23.927  0.00  0.00    +0.093 C 
ATOM     22  C   UNL     1      34.691 -16.802 -23.370  0.00  0.00    +0.093 C 
ATOM     23  C   UNL     1      34.297 -18.379 -25.106  0.00  0.00    +0.023 C 
ATOM     24  C   UNL     1      34.773 -16.950 -24.880  0.00  0.00    +0.023 C 
ATOM     25  C   UNL     1      35.232 -18.376 -21.523  0.00  0.00    +0.206 C 
ENDBRANCH  18  25
BRANCH  18  26
ATOM     26  N   UNL     1      36.404 -19.761 -20.031  0.00  0.00    +0.388 N 
ATOM     27  H   UNL     1      37.130 -19.071 -20.222  0.00  0.00    -0.089 HD
ATOM     28  H   UNL     1      36.833 -20.677 -19.896  0.00  0.00    -0.089 HD
ATOM     29  H   UNL     1      35.896 -19.496 -19.187  0.00  0.00    -0.089 HD
ENDBRANCH  18  26
ENDBRANCH  16  18
ENDBRANCH   4  16
TORSDOF 6
ENDMDL
MODEL 2
REMARK VINA RESULT:     -10.9      3.815      8.651
REMARK  Name = 23645698
REMARK  6 active torsions:
REMARK  status: ('A' for Active; 'I' for Inactive)
REMARK    1  A    between atoms: C_4  and  C_16
REMARK    2  A    between atoms: C_5  and  C_6
REMARK    3  A    between atoms: C_7  and  S_12
REMARK    4  A    between atoms: C_16  and  C_18
REMARK    5  A    between atoms: C_18  and  C_25
REMARK    6  A    between atoms: C_18  and  N_26
REMARK                            x       y       z     vdW  Elec       q    Type
REMARK                         _______ _______ _______ _____ _____    ______ ____
ROOT
ATOM      1  O   UNL     1      33.488 -24.290 -17.673  0.00  0.00    -0.316 OA
ATOM      2  N   UNL     1      34.729 -22.469 -17.272  0.00  0.00    -0.313 NA
ATOM      3  N   UNL     1      33.491 -23.551 -18.863  0.00  0.00    -0.007 NA
ATOM      4  C   UNL     1      34.234 -23.558 -16.845  0.00  0.00    +0.292 C 
ATOM      5  C   UNL     1      34.244 -22.492 -18.547  0.00  0.00    +0.127 C 
ENDROOT
BRANCH   5   6
ATOM      6  C   UNL     1      34.529 -21.441 -19.481  0.00  0.00    +0.077 C 
ATOM      7  C   UNL     1      35.084 -19.397 -21.298  0.00  0.00    +0.106 C 
ATOM      8  C   UNL     1      35.852 -21.119 -19.786  0.00  0.00    +0.012 C 
ATOM      9  C   UNL     1      33.484 -20.740 -20.085  0.00  0.00    +0.012 C 
ATOM     10  C   UNL     1      36.129 -20.097 -20.695  0.00  0.00    +0.019 C 
ATOM     11  C   UNL     1      33.762 -19.718 -20.993  0.00  0.00    +0.019 C 
BRANCH   7  12
ATOM     12  S   UNL     1      35.434 -18.119 -22.435  0.00  0.00    +0.010 S 
ATOM     13  O   UNL     1      36.878 -18.050 -22.605  0.00  0.00    -0.169 OA
ATOM     14  O   UNL     1      34.575 -18.279 -23.603  0.00  0.00    -0.169 OA
ATOM     15  C   UNL     1      34.909 -16.635 -21.608  0.00  0.00    +0.182 C 
ENDBRANCH   7  12
ENDBRANCH   5   6
BRANCH   4  16
ATOM     16  C   UNL     1      34.390 -24.161 -15.447  0.00  0.00    +0.081 C 
ATOM     17  C   UNL     1      35.834 -23.983 -14.954  0.00  0.00    +0.009 C 
BRANCH  16  18
ATOM     18  C   UNL     1      33.357 -23.580 -14.456  0.00  0.00    +0.023 C 
BRANCH  18  25
ATOM     19  O   UNL     1      32.236 -25.535 -13.684  0.00  0.00    -0.277 OA
ATOM     20  N   UNL     1      31.022 -24.073 -14.997  0.00  0.00    -0.281 N 
ATOM     21  C   UNL     1      30.867 -22.851 -15.779  0.00  0.00    +0.093 C 
ATOM     22  C   UNL     1      29.787 -24.844 -14.984  0.00  0.00    +0.093 C 
ATOM     23  C   UNL     1      29.538 -23.028 -16.500  0.00  0.00    +0.023 C 
ATOM     24  C   UNL     1      28.738 -23.891 -15.533  0.00  0.00    +0.023 C 
ATOM     25  C   UNL     1      32.162 -24.492 -14.334  0.00  0.00    +0.206 C 
ENDBRANCH  18  25
BRANCH  18  26
ATOM     26  N   UNL     1      33.869 -23.458 -13.096  0.00  0.00    +0.388 N 
ATOM     27  H   UNL     1      33.200 -22.939 -12.526  0.00  0.00    -0.089 HD
ATOM     28  H   UNL     1      34.760 -22.962 -13.111  0.00  0.00    -0.089 HD
ATOM     29  H   UNL     1      34.004 -24.388 -12.699  0.00  0.00    -0.089 HD
ENDBRANCH  18  26
ENDBRANCH  16  18
ENDBRANCH   4  16
TORSDOF 6
ENDMDL
MODEL 3
REMARK VINA RESULT:     -10.7      3.758      6.560
REMARK  Name = 23645698
REMARK  6 active torsions:
REMARK  status: ('A' for Active; 'I' for Inactive)
REMARK    1  A    between atoms: C_4  and  C_16
REMARK    2  A    between atoms: C_5  and  C_6
REMARK    3  A    between atoms: C_7  and  S_12
REMARK    4  A    between atoms: C_16  and  C_18
REMARK    5  A    between atoms: C_18  and  C_25
REMARK    6  A    between atoms: C_18  and  N_26
REMARK                            x       y       z     vdW  Elec       q    Type
REMARK                         _______ _______ _______ _____ _____    ______ ____
ROOT
ATOM      1  O   UNL     1      35.186 -15.873 -22.290  0.00  0.00    -0.316 OA
ATOM      2  N   UNL     1      34.266 -17.764 -23.061  0.00  0.00    -0.313 NA
ATOM      3  N   UNL     1      35.160 -16.762 -21.208  0.00  0.00    -0.007 NA
ATOM      4  C   UNL     1      34.645 -16.573 -23.288  0.00  0.00    +0.292 C 
ATOM      5  C   UNL     1      34.604 -17.855 -21.742  0.00  0.00    +0.127 C 
ENDROOT
BRANCH   5   6
ATOM      6  C   UNL     1      34.372 -19.051 -20.986  0.00  0.00    +0.077 C 
ATOM      7  C   UNL     1      33.921 -21.379 -19.514  0.00  0.00    +0.106 C 
ATOM      8  C   UNL     1      33.068 -19.434 -20.666  0.00  0.00    +0.012 C 
ATOM      9  C   UNL     1      35.449 -19.834 -20.567  0.00  0.00    +0.012 C 
ATOM     10  C   UNL     1      32.843 -20.598 -19.931  0.00  0.00    +0.019 C 
ATOM     11  C   UNL     1      35.224 -20.997 -19.832  0.00  0.00    +0.019 C 
BRANCH   7  12
ATOM     12  S   UNL     1      33.637 -22.836 -18.594  0.00  0.00    +0.010 S 
ATOM     13  O   UNL     1      32.310 -22.743 -18.002  0.00  0.00    -0.169 OA
ATOM     14  O   UNL     1      33.982 -23.988 -19.417  0.00  0.00    -0.169 OA
ATOM     15  C   UNL     1      34.829 -22.767 -17.277  0.00  0.00    +0.182 C 
ENDBRANCH   7  12
ENDBRANCH   5   6
BRANCH   4  16
ATOM     16  C   UNL     1      34.557 -15.809 -24.610  0.00  0.00    +0.081 C 
ATOM     17  C   UNL     1      34.946 -16.729 -25.778  0.00  0.00    +0.009 C 
BRANCH  16  18
ATOM     18  C   UNL     1      33.165 -15.169 -24.809  0.00  0.00    +0.023 C 
BRANCH  18  25
ATOM     19  O   UNL     1      33.637 -12.912 -25.409  0.00  0.00    -0.277 OA
ATOM     20  N   UNL     1      32.778 -13.285 -23.297  0.00  0.00    -0.281 N 
ATOM     21  C   UNL     1      32.268 -14.145 -22.235  0.00  0.00    +0.093 C 
ATOM     22  C   UNL     1      32.772 -11.888 -22.886  0.00  0.00    +0.093 C 
ATOM     23  C   UNL     1      32.199 -13.239 -21.013  0.00  0.00    +0.023 C 
ATOM     24  C   UNL     1      31.930 -11.868 -21.620  0.00  0.00    +0.023 C 
ATOM     25  C   UNL     1      33.218 -13.684 -24.546  0.00  0.00    +0.206 C 
ENDBRANCH  18  25
BRANCH  18  26
ATOM     26  N   UNL     1      32.667 -15.284 -26.175  0.00  0.00    +0.388 N 
ATOM     27  H   UNL     1      32.596 -16.271 -26.428  0.00  0.00    -0.089 HD
ATOM     28  H   UNL     1      33.311 -14.816 -26.812  0.00  0.00    -0.089 HD
ATOM     29  H   UNL     1      31.747 -14.849 -26.240  0.00  0.00    -0.089 HD
ENDBRANCH  18  26
ENDBRANCH  16  18
ENDBRANCH   4  16
TORSDOF 6
ENDMDL
MODEL 4
REMARK VINA RESULT:     -10.5      2.997      3.533
REMARK  Name = 23645698
REMARK  6 active torsions:
REMARK  status: ('A' for Active; 'I' for Inactive)
REMARK    1  A    between atoms: C_4  and  C_16
REMARK    2  A    between atoms: C_5  and  C_6
REMARK    3  A    between atoms: C_7  and  S_12
REMARK    4  A    between atoms: C_16  and  C_18
REMARK    5  A    between atoms: C_18  and  C_25
REMARK    6  A    between atoms: C_18  and  N_26
REMARK                            x       y       z     vdW  Elec       q    Type
REMARK                         _______ _______ _______ _____ _____    ______ ____
ROOT
ATOM      1  O   UNL     1      35.118 -21.964 -19.962  0.00  0.00    -0.316 OA
ATOM      2  N   UNL     1      33.144 -21.310 -19.129  0.00  0.00    -0.313 NA
ATOM      3  N   UNL     1      34.885 -22.766 -18.837  0.00  0.00    -0.007 NA
ATOM      4  C   UNL     1      34.045 -21.175 -20.015  0.00  0.00    +0.292 C 
ATOM      5  C   UNL     1      33.702 -22.320 -18.401  0.00  0.00    +0.127 C 
ENDROOT
BRANCH   5   6
ATOM      6  C   UNL     1      33.051 -22.863 -17.244  0.00  0.00    +0.077 C 
ATOM      7  C   UNL     1      31.785 -23.918 -14.992  0.00  0.00    +0.106 C 
ATOM      8  C   UNL     1      31.661 -22.802 -17.132  0.00  0.00    +0.012 C 
ATOM      9  C   UNL     1      33.806 -23.451 -16.228  0.00  0.00    +0.012 C 
ATOM     10  C   UNL     1      31.028 -23.330 -16.006  0.00  0.00    +0.019 C 
ATOM     11  C   UNL     1      33.174 -23.978 -15.103  0.00  0.00    +0.019 C 
BRANCH   7  12
ATOM     12  S   UNL     1      30.991 -24.578 -13.584  0.00  0.00    +0.010 S 
ATOM     13  O   UNL     1      31.808 -25.672 -13.078  0.00  0.00    -0.169 OA
ATOM     14  O   UNL     1      30.617 -23.485 -12.696  0.00  0.00    -0.169 OA
ATOM     15  C   UNL     1      29.479 -25.272 -14.213  0.00  0.00    +0.182 C 
ENDBRANCH   7  12
ENDBRANCH   5   6
BRANCH   4  16
ATOM     16  C   UNL     1      34.056 -20.183 -21.180  0.00  0.00    +0.081 C 
ATOM     17  C   UNL     1      32.906 -19.176 -21.027  0.00  0.00    +0.009 C 
BRANCH  16  18
ATOM     18  C   UNL     1      35.428 -19.487 -21.326  0.00  0.00    +0.023 C 
BRANCH  18  25
ATOM     19  O   UNL     1      35.321 -17.184 -20.727  0.00  0.00    -0.277 OA
ATOM     20  N   UNL     1      35.012 -17.711 -22.955  0.00  0.00    -0.281 N 
ATOM     21  C   UNL     1      34.924 -18.650 -24.068  0.00  0.00    +0.093 C 
ATOM     22  C   UNL     1      34.815 -16.342 -23.410  0.00  0.00    +0.093 C 
ATOM     23  C   UNL     1      34.375 -17.820 -25.221  0.00  0.00    +0.023 C 
ATOM     24  C   UNL     1      34.913 -16.427 -24.925  0.00  0.00    +0.023 C 
ATOM     25  C   UNL     1      35.253 -18.020 -21.629  0.00  0.00    +0.206 C 
ENDBRANCH  18  25
BRANCH  18  26
ATOM     26  N   UNL     1      36.222 -19.520 -20.103  0.00  0.00    +0.388 N 
ATOM     27  H   UNL     1      35.617 -19.737 -19.310  0.00  0.00    -0.089 HD
ATOM     28  H   UNL     1      36.659 -18.610 -19.957  0.00  0.00    -0.089 HD
ATOM     29  H   UNL     1      36.944 -20.235 -20.185  0.00  0.00    -0.089 HD
ENDBRANCH  18  26
ENDBRANCH  16  18
ENDBRANCH   4  16
TORSDOF 6
ENDMDL
MODEL 5
REMARK VINA RESULT:     -10.4      3.795      8.954
REMARK  Name = 23645698
REMARK  6 active torsions:
REMARK  status: ('A' for Active; 'I' for Inactive)
REMARK    1  A    between atoms: C_4  and  C_16
REMARK    2  A    between atoms: C_5  and  C_6
REMARK    3  A    between atoms: C_7  and  S_12
REMARK    4  A    between atoms: C_16  and  C_18
REMARK    5  A    between atoms: C_18  and  C_25
REMARK    6  A    between atoms: C_18  and  N_26
REMARK                            x       y       z     vdW  Elec       q    Type
REMARK                         _______ _______ _______ _____ _____    ______ ____
ROOT
ATOM      1  O   UNL     1      33.037 -24.106 -17.269  0.00  0.00    -0.316 OA
ATOM      2  N   UNL     1      32.274 -22.025 -17.596  0.00  0.00    -0.313 NA
ATOM      3  N   UNL     1      33.785 -23.579 -18.330  0.00  0.00    -0.007 NA
ATOM      4  C   UNL     1      32.209 -23.114 -16.943  0.00  0.00    +0.292 C 
ATOM      5  C   UNL     1      33.277 -22.350 -18.463  0.00  0.00    +0.127 C 
ENDROOT
BRANCH   5   6
ATOM      6  C   UNL     1      33.748 -21.422 -19.450  0.00  0.00    +0.077 C 
ATOM      7  C   UNL     1      34.665 -19.617 -21.371  0.00  0.00    +0.106 C 
ATOM      8  C   UNL     1      35.114 -21.321 -19.717  0.00  0.00    +0.012 C 
ATOM      9  C   UNL     1      32.841 -20.619 -20.144  0.00  0.00    +0.012 C 
ATOM     10  C   UNL     1      35.572 -20.418 -20.678  0.00  0.00    +0.019 C 
ATOM     11  C   UNL     1      33.300 -19.717 -21.104  0.00  0.00    +0.019 C 
BRANCH   7  12
ATOM     12  S   UNL     1      35.240 -18.489 -22.573  0.00  0.00    +0.010 S 
ATOM     13  O   UNL     1      36.683 -18.368 -22.423  0.00  0.00    -0.169 OA
ATOM     14  O   UNL     1      34.676 -18.851 -23.868  0.00  0.00    -0.169 OA
ATOM     15  C   UNL     1      34.509 -16.936 -22.108  0.00  0.00    +0.182 C 
ENDBRANCH   7  12
ENDBRANCH   5   6
BRANCH   4  16
ATOM     16  C   UNL     1      31.265 -23.443 -15.785  0.00  0.00    +0.081 C 
ATOM     17  C   UNL     1      29.865 -23.776 -16.324  0.00  0.00    +0.009 C 
BRANCH  16  18
ATOM     18  C   UNL     1      31.830 -24.568 -14.889  0.00  0.00    +0.023 C 
BRANCH  18  25
ATOM     19  O   UNL     1      32.033 -23.329 -12.865  0.00  0.00    -0.277 OA
ATOM     20  N   UNL     1      33.963 -24.255 -13.734  0.00  0.00    -0.281 N 
ATOM     21  C   UNL     1      34.699 -25.033 -14.725  0.00  0.00    +0.093 C 
ATOM     22  C   UNL     1      34.852 -23.763 -12.691  0.00  0.00    +0.093 C 
ATOM     23  C   UNL     1      36.164 -24.770 -14.401  0.00  0.00    +0.023 C 
ATOM     24  C   UNL     1      36.144 -24.537 -12.896  0.00  0.00    +0.023 C 
ATOM     25  C   UNL     1      32.605 -23.991 -13.732  0.00  0.00    +0.206 C 
ENDBRANCH  18  25
BRANCH  18  26
ATOM     26  N   UNL     1      30.793 -25.385 -14.268  0.00  0.00    +0.388 N 
ATOM     27  H   UNL     1      31.044 -26.371 -14.346  0.00  0.00    -0.089 HD
ATOM     28  H   UNL     1      29.904 -25.223 -14.741  0.00  0.00    -0.089 HD
ATOM     29  H   UNL     1      30.705 -25.133 -13.284  0.00  0.00    -0.089 HD
ENDBRANCH  18  26
ENDBRANCH  16  18
ENDBRANCH   4  16
TORSDOF 6
ENDMDL
MODEL 6
REMARK VINA RESULT:     -10.4      3.401      9.168
REMARK  Name = 23645698
REMARK  6 active torsions:
REMARK  status: ('A' for Active; 'I' for Inactive)
REMARK    1  A    between atoms: C_4  and  C_16
REMARK    2  A    between atoms: C_5  and  C_6
REMARK    3  A    between atoms: C_7  and  S_12
REMARK    4  A    between atoms: C_16  and  C_18
REMARK    5  A    between atoms: C_18  and  C_25
REMARK    6  A    between atoms: C_18  and  N_26
REMARK                            x       y       z     vdW  Elec       q    Type
REMARK                         _______ _______ _______ _____ _____    ______ ____
ROOT
ATOM      1  O   UNL     1      33.602 -24.171 -17.173  0.00  0.00    -0.316 OA
ATOM      2  N   UNL     1      35.011 -22.433 -17.079  0.00  0.00    -0.313 NA
ATOM      3  N   UNL     1      33.476 -23.502 -18.397  0.00  0.00    -0.007 NA
ATOM      4  C   UNL     1      34.513 -23.456 -16.513  0.00  0.00    +0.292 C 
ATOM      5  C   UNL     1      34.338 -22.488 -18.265  0.00  0.00    +0.127 C 
ENDROOT
BRANCH   5   6
ATOM      6  C   UNL     1      34.550 -21.515 -19.298  0.00  0.00    +0.077 C 
ATOM      7  C   UNL     1      34.963 -19.623 -21.307  0.00  0.00    +0.106 C 
ATOM      8  C   UNL     1      33.459 -20.932 -19.942  0.00  0.00    +0.012 C 
ATOM      9  C   UNL     1      35.848 -21.152 -19.660  0.00  0.00    +0.012 C 
ATOM     10  C   UNL     1      33.665 -19.986 -20.946  0.00  0.00    +0.019 C 
ATOM     11  C   UNL     1      36.054 -20.206 -20.664  0.00  0.00    +0.019 C 
BRANCH   7  12
ATOM     12  S   UNL     1      35.219 -18.438 -22.563  0.00  0.00    +0.010 S 
ATOM     13  O   UNL     1      36.651 -18.198 -22.670  0.00  0.00    -0.169 OA
ATOM     14  O   UNL     1      34.462 -18.832 -23.745  0.00  0.00    -0.169 OA
ATOM     15  C   UNL     1      34.461 -16.957 -21.935  0.00  0.00    +0.182 C 
ENDBRANCH   7  12
ENDBRANCH   5   6
BRANCH   4  16
ATOM     16  C   UNL     1      34.836 -23.991 -15.117  0.00  0.00    +0.081 C 
ATOM     17  C   UNL     1      33.556 -24.502 -14.439  0.00  0.00    +0.009 C 
BRANCH  16  18
ATOM     18  C   UNL     1      35.945 -25.065 -15.159  0.00  0.00    +0.023 C 
BRANCH  18  25
ATOM     19  O   UNL     1      36.294 -24.787 -12.819  0.00  0.00    -0.277 OA
ATOM     20  N   UNL     1      38.160 -25.174 -14.126  0.00  0.00    -0.281 N 
ATOM     21  C   UNL     1      38.825 -25.428 -15.400  0.00  0.00    +0.093 C 
ATOM     22  C   UNL     1      39.123 -25.129 -13.035  0.00  0.00    +0.093 C 
ATOM     23  C   UNL     1      40.307 -25.261 -15.094  0.00  0.00    +0.023 C 
ATOM     24  C   UNL     1      40.403 -25.687 -13.634  0.00  0.00    +0.023 C 
ATOM     25  C   UNL     1      36.804 -24.996 -13.921  0.00  0.00    +0.206 C 
ENDBRANCH  18  25
BRANCH  18  26
ATOM     26  N   UNL     1      35.426 -26.428 -15.174  0.00  0.00    +0.388 N 
ATOM     27  H   UNL     1      35.728 -26.916 -14.329  0.00  0.00    -0.089 HD
ATOM     28  H   UNL     1      35.782 -26.919 -15.994  0.00  0.00    -0.089 HD
ATOM     29  H   UNL     1      34.407 -26.404 -15.207  0.00  0.00    -0.089 HD
ENDBRANCH  18  26
ENDBRANCH  16  18
ENDBRANCH   4  16
TORSDOF 6
ENDMDL
MODEL 7
REMARK VINA RESULT:     -10.3      3.750      6.437
REMARK  Name = 23645698
REMARK  6 active torsions:
REMARK  status: ('A' for Active; 'I' for Inactive)
REMARK    1  A    between atoms: C_4  and  C_16
REMARK    2  A    between atoms: C_5  and  C_6
REMARK    3  A    between atoms: C_7  and  S_12
REMARK    4  A    between atoms: C_16  and  C_18
REMARK    5  A    between atoms: C_18  and  C_25
REMARK    6  A    between atoms: C_18  and  N_26
REMARK                            x       y       z     vdW  Elec       q    Type
REMARK                         _______ _______ _______ _____ _____    ______ ____
ROOT
ATOM      1  O   UNL     1      35.271 -17.333 -24.027  0.00  0.00    -0.316 OA
ATOM      2  N   UNL     1      34.213 -17.126 -22.063  0.00  0.00    -0.313 NA
ATOM      3  N   UNL     1      35.270 -18.609 -23.449  0.00  0.00    -0.007 NA
ATOM      4  C   UNL     1      34.634 -16.580 -23.131  0.00  0.00    +0.292 C 
ATOM      5  C   UNL     1      34.629 -18.405 -22.294  0.00  0.00    +0.127 C 
ENDROOT
BRANCH   5   6
ATOM      6  C   UNL     1      34.387 -19.457 -21.349  0.00  0.00    +0.077 C 
ATOM      7  C   UNL     1      33.918 -21.504 -19.511  0.00  0.00    +0.106 C 
ATOM      8  C   UNL     1      35.460 -20.157 -20.794  0.00  0.00    +0.012 C 
ATOM      9  C   UNL     1      33.080 -19.784 -20.984  0.00  0.00    +0.012 C 
ATOM     10  C   UNL     1      35.225 -21.180 -19.875  0.00  0.00    +0.019 C 
ATOM     11  C   UNL     1      32.846 -20.806 -20.066  0.00  0.00    +0.019 C 
BRANCH   7  12
ATOM     12  S   UNL     1      33.626 -22.784 -18.360  0.00  0.00    +0.010 S 
ATOM     13  O   UNL     1      32.365 -22.506 -17.688  0.00  0.00    -0.169 OA
ATOM     14  O   UNL     1      33.825 -24.068 -19.021  0.00  0.00    -0.169 OA
ATOM     15  C   UNL     1      34.932 -22.611 -17.165  0.00  0.00    +0.182 C 
ENDBRANCH   7  12
ENDBRANCH   5   6
BRANCH   4  16
ATOM     16  C   UNL     1      34.499 -15.110 -23.533  0.00  0.00    +0.081 C 
ATOM     17  C   UNL     1      33.326 -14.936 -24.510  0.00  0.00    +0.009 C 
BRANCH  16  18
ATOM     18  C   UNL     1      34.375 -14.188 -22.299  0.00  0.00    +0.023 C 
BRANCH  18  25
ATOM     19  O   UNL     1      32.118 -14.560 -21.635  0.00  0.00    -0.277 OA
ATOM     20  N   UNL     1      32.647 -12.463 -22.445  0.00  0.00    -0.281 N 
ATOM     21  C   UNL     1      33.575 -11.473 -22.983  0.00  0.00    +0.093 C 
ATOM     22  C   UNL     1      31.309 -11.904 -22.310  0.00  0.00    +0.093 C 
ATOM     23  C   UNL     1      32.683 -10.331 -23.449  0.00  0.00    +0.023 C 
ATOM     24  C   UNL     1      31.502 -10.407 -22.490  0.00  0.00    +0.023 C 
ATOM     25  C   UNL     1      32.942 -13.766 -22.089  0.00  0.00    +0.206 C 
ENDBRANCH  18  25
BRANCH  18  26
ATOM     26  N   UNL     1      34.754 -14.842 -21.052  0.00  0.00    +0.388 N 
ATOM     27  H   UNL     1      34.132 -15.633 -20.880  0.00  0.00    -0.089 HD
ATOM     28  H   UNL     1      34.677 -14.177 -20.282  0.00  0.00    -0.089 HD
ATOM     29  H   UNL     1      35.716 -15.174 -21.120  0.00  0.00    -0.089 HD
ENDBRANCH  18  26
ENDBRANCH  16  18
ENDBRANCH   4  16
TORSDOF 6
ENDMDL
MODEL 8
REMARK VINA RESULT:     -10.1      7.225     10.786
REMARK  Name = 23645698
REMARK  6 active torsions:
REMARK  status: ('A' for Active; 'I' for Inactive)
REMARK    1  A    between atoms: C_4  and  C_16
REMARK    2  A    between atoms: C_5  and  C_6
REMARK    3  A    between atoms: C_7  and  S_12
REMARK    4  A    between atoms: C_16  and  C_18
REMARK    5  A    between atoms: C_18  and  C_25
REMARK    6  A    between atoms: C_18  and  N_26
REMARK                            x       y       z     vdW  Elec       q    Type
REMARK                         _______ _______ _______ _____ _____    ______ ____
ROOT
ATOM      1  O   UNL     1      33.050 -11.392 -23.566  0.00  0.00    -0.316 OA
ATOM      2  N   UNL     1      32.356 -12.824 -21.991  0.00  0.00    -0.313 NA
ATOM      3  N   UNL     1      33.765 -12.578 -23.777  0.00  0.00    -0.007 NA
ATOM      4  C   UNL     1      32.280 -11.669 -22.515  0.00  0.00    +0.292 C 
ATOM      5  C   UNL     1      33.300 -13.374 -22.808  0.00  0.00    +0.127 C 
ENDROOT
BRANCH   5   6
ATOM      6  C   UNL     1      33.757 -14.722 -22.631  0.00  0.00    +0.077 C 
ATOM      7  C   UNL     1      34.646 -17.345 -22.285  0.00  0.00    +0.106 C 
ATOM      8  C   UNL     1      33.755 -15.298 -21.360  0.00  0.00    +0.012 C 
ATOM      9  C   UNL     1      34.205 -15.459 -23.728  0.00  0.00    +0.012 C 
ATOM     10  C   UNL     1      34.200 -16.610 -21.187  0.00  0.00    +0.019 C 
ATOM     11  C   UNL     1      34.649 -16.770 -23.556  0.00  0.00    +0.019 C 
BRANCH   7  12
ATOM     12  S   UNL     1      35.201 -18.986 -22.068  0.00  0.00    +0.010 S 
ATOM     13  O   UNL     1      35.126 -19.661 -23.355  0.00  0.00    -0.169 OA
ATOM     14  O   UNL     1      36.461 -18.965 -21.335  0.00  0.00    -0.169 OA
ATOM     15  C   UNL     1      33.991 -19.723 -20.992  0.00  0.00    +0.182 C 
ENDBRANCH   7  12
ENDBRANCH   5   6
BRANCH   4  16
ATOM     16  C   UNL     1      31.382 -10.511 -22.075  0.00  0.00    +0.081 C 
ATOM     17  C   UNL     1      30.726 -10.835 -20.725  0.00  0.00    +0.009 C 
BRANCH  16  18
ATOM     18  C   UNL     1      32.152  -9.171 -22.045  0.00  0.00    +0.023 C 
BRANCH  18  25
ATOM     19  O   UNL     1      30.360  -8.107 -23.199  0.00  0.00    -0.277 OA
ATOM     20  N   UNL     1      32.506  -7.468 -23.765  0.00  0.00    -0.281 N 
ATOM     21  C   UNL     1      33.958  -7.530 -23.633  0.00  0.00    +0.093 C 
ATOM     22  C   UNL     1      32.115  -6.496 -24.776  0.00  0.00    +0.093 C 
ATOM     23  C   UNL     1      34.481  -6.741 -24.826  0.00  0.00    +0.023 C 
ATOM     24  C   UNL     1      33.385  -5.710 -25.059  0.00  0.00    +0.023 C 
ATOM     25  C   UNL     1      31.578  -8.203 -23.050  0.00  0.00    +0.206 C 
ENDBRANCH  18  25
BRANCH  18  26
ATOM     26  N   UNL     1      32.051  -8.478 -20.766  0.00  0.00    +0.388 N 
ATOM     27  H   UNL     1      32.978  -8.406 -20.344  0.00  0.00    -0.089 HD
ATOM     28  H   UNL     1      31.435  -9.000 -20.143  0.00  0.00    -0.089 HD
ATOM     29  H   UNL     1      31.672  -7.543 -20.914  0.00  0.00    -0.089 HD
ENDBRANCH  18  26
ENDBRANCH  16  18
ENDBRANCH   4  16
TORSDOF 6
ENDMDL
MODEL 9
REMARK VINA RESULT:     -10.1      5.891     11.324
REMARK  Name = 23645698
REMARK  6 active torsions:
REMARK  status: ('A' for Active; 'I' for Inactive)
REMARK    1  A    between atoms: C_4  and  C_16
REMARK    2  A    between atoms: C_5  and  C_6
REMARK    3  A    between atoms: C_7  and  S_12
REMARK    4  A    between atoms: C_16  and  C_18
REMARK    5  A    between atoms: C_18  and  C_25
REMARK    6  A    between atoms: C_18  and  N_26
REMARK                            x       y       z     vdW  Elec       q    Type
REMARK                         _______ _______ _______ _____ _____    ______ ____
ROOT
ATOM      1  O   UNL     1      34.097 -16.179 -24.754  0.00  0.00    -0.316 OA
ATOM      2  N   UNL     1      33.667 -15.320 -22.730  0.00  0.00    -0.313 NA
ATOM      3  N   UNL     1      33.791 -14.828 -24.962  0.00  0.00    -0.007 NA
ATOM      4  C   UNL     1      33.990 -16.328 -23.434  0.00  0.00    +0.292 C 
ATOM      5  C   UNL     1      33.549 -14.390 -23.722  0.00  0.00    +0.127 C 
ENDROOT
BRANCH   5   6
ATOM      6  C   UNL     1      33.187 -13.031 -23.440  0.00  0.00    +0.077 C 
ATOM      7  C   UNL     1      32.484 -10.386 -22.892  0.00  0.00    +0.106 C 
ATOM      8  C   UNL     1      32.234 -12.751 -22.461  0.00  0.00    +0.012 C 
ATOM      9  C   UNL     1      33.788 -11.987 -24.146  0.00  0.00    +0.012 C 
ATOM     10  C   UNL     1      31.882 -11.429 -22.187  0.00  0.00    +0.019 C 
ATOM     11  C   UNL     1      33.437 -10.665 -23.872  0.00  0.00    +0.019 C 
BRANCH   7  12
ATOM     12  S   UNL     1      32.044  -8.732 -22.547  0.00  0.00    +0.010 S 
ATOM     13  O   UNL     1      31.049  -8.318 -23.525  0.00  0.00    -0.169 OA
ATOM     14  O   UNL     1      31.753  -8.609 -21.124  0.00  0.00    -0.169 OA
ATOM     15  C   UNL     1      33.530  -7.806 -22.853  0.00  0.00    +0.182 C 
ENDBRANCH   7  12
ENDBRANCH   5   6
BRANCH   4  16
ATOM     16  C   UNL     1      34.281 -17.747 -22.939  0.00  0.00    +0.081 C 
ATOM     17  C   UNL     1      35.464 -18.344 -23.717  0.00  0.00    +0.009 C 
BRANCH  16  18
ATOM     18  C   UNL     1      34.507 -17.784 -21.411  0.00  0.00    +0.023 C 
BRANCH  18  25
ATOM     19  O   UNL     1      36.680 -18.747 -21.249  0.00  0.00    -0.277 OA
ATOM     20  N   UNL     1      34.906 -20.009 -20.476  0.00  0.00    -0.281 N 
ATOM     21  C   UNL     1      33.490 -20.229 -20.200  0.00  0.00    +0.093 C 
ATOM     22  C   UNL     1      35.702 -21.159 -20.069  0.00  0.00    +0.093 C 
ATOM     23  C   UNL     1      33.398 -21.708 -19.850  0.00  0.00    +0.023 C 
ATOM     24  C   UNL     1      34.756 -21.997 -19.225  0.00  0.00    +0.023 C 
ATOM     25  C   UNL     1      35.473 -18.881 -21.041  0.00  0.00    +0.206 C 
ENDBRANCH  18  25
BRANCH  18  26
ATOM     26  N   UNL     1      35.113 -16.566 -20.889  0.00  0.00    +0.388 N 
ATOM     27  H   UNL     1      34.388 -15.866 -20.730  0.00  0.00    -0.089 HD
ATOM     28  H   UNL     1      35.790 -16.206 -21.562  0.00  0.00    -0.089 HD
ATOM     29  H   UNL     1      35.586 -16.771 -20.009  0.00  0.00    -0.089 HD
ENDBRANCH  18  26
ENDBRANCH  16  18
ENDBRANCH   4  16
TORSDOF 6
ENDMDL
