MODEL 1
REMARK VINA RESULT:      -7.3      0.000      0.000
REMARK  Name = 23644579
REMARK  6 active torsions:
REMARK  status: ('A' for Active; 'I' for Inactive)
REMARK    1  A    between atoms: C_1  and  C_3
REMARK    2  A    between atoms: C_1  and  O_9
REMARK    3  A    between atoms: C_1  and  C_11
REMARK    4  A    between atoms: C_11  and  O_12
REMARK    5  A    between atoms: C_11  and  C_15
REMARK    6  A    between atoms: C_15  and  O_16
REMARK                            x       y       z     vdW  Elec       q    Type
REMARK                         _______ _______ _______ _____ _____    ______ ____
ROOT
ATOM      1  C   UNL     1      35.008 -18.066 -22.045  0.00  0.00    +0.171 C 
ENDROOT
BRANCH   1   3
ATOM      2  F   UNL     1      33.939 -22.534 -18.766  0.00  0.00    -0.204 F 
ATOM      3  C   UNL     1      34.722 -19.266 -21.165  0.00  0.00    +0.007 C 
ATOM      4  C   UNL     1      35.775 -20.018 -20.646  0.00  0.00    +0.000 C 
ATOM      5  C   UNL     1      33.404 -19.618 -20.873  0.00  0.00    +0.000 C 
ATOM      6  C   UNL     1      35.511 -21.122 -19.836  0.00  0.00    +0.029 C 
ATOM      7  C   UNL     1      33.139 -20.722 -20.063  0.00  0.00    +0.029 C 
ATOM      8  C   UNL     1      34.193 -21.474 -19.544  0.00  0.00    +0.140 C 
ENDBRANCH   1   3
BRANCH   1   9
ATOM      9  O   UNL     1      34.406 -16.899 -21.482  0.00  0.00    -0.377 OA
ATOM     10  H   UNL     1      34.976 -16.548 -20.780  0.00  0.00    +0.211 HD
ENDBRANCH   1   9
BRANCH   1  11
ATOM     11  C   UNL     1      34.520 -18.284 -23.485  0.00  0.00    +0.241 C 
BRANCH  11  12
ATOM     12  O   UNL     1      35.035 -19.509 -23.989  0.00  0.00    -0.372 OA
ATOM     13  H   UNL     1      34.350 -20.193 -23.937  0.00  0.00    +0.211 HD
ENDBRANCH  11  12
BRANCH  11  15
ATOM     14  O   UNL     1      34.681 -17.063 -25.590  0.00  0.00    -0.247 OA
ATOM     15  C   UNL     1      34.980 -17.175 -24.409  0.00  0.00    +0.344 C 
BRANCH  15  16
ATOM     16  O   UNL     1      35.758 -16.284 -23.743  0.00  0.00    -0.478 OA
ATOM     17  H   UNL     1      36.076 -15.520 -24.182  0.00  0.00    +0.295 HD
ENDBRANCH  15  16
ENDBRANCH  11  15
ENDBRANCH   1  11
TORSDOF 6
ENDMDL
MODEL 2
REMARK VINA RESULT:      -7.3      0.022      1.291
REMARK  Name = 23644579
REMARK  6 active torsions:
REMARK  status: ('A' for Active; 'I' for Inactive)
REMARK    1  A    between atoms: C_1  and  C_3
REMARK    2  A    between atoms: C_1  and  O_9
REMARK    3  A    between atoms: C_1  and  C_11
REMARK    4  A    between atoms: C_11  and  O_12
REMARK    5  A    between atoms: C_11  and  C_15
REMARK    6  A    between atoms: C_15  and  O_16
REMARK                            x       y       z     vdW  Elec       q    Type
REMARK                         _______ _______ _______ _____ _____    ______ ____
ROOT
ATOM      1  C   UNL     1      35.019 -18.069 -22.037  0.00  0.00    +0.171 C 
ENDROOT
BRANCH   1   3
ATOM      2  F   UNL     1      33.967 -22.546 -18.765  0.00  0.00    -0.204 F 
ATOM      3  C   UNL     1      34.736 -19.270 -21.158  0.00  0.00    +0.007 C 
ATOM      4  C   UNL     1      33.420 -19.621 -20.857  0.00  0.00    +0.000 C 
ATOM      5  C   UNL     1      35.792 -20.028 -20.650  0.00  0.00    +0.000 C 
ATOM      6  C   UNL     1      33.160 -20.727 -20.048  0.00  0.00    +0.029 C 
ATOM      7  C   UNL     1      35.533 -21.134 -19.842  0.00  0.00    +0.029 C 
ATOM      8  C   UNL     1      34.216 -21.484 -19.541  0.00  0.00    +0.140 C 
ENDBRANCH   1   3
BRANCH   1   9
ATOM      9  O   UNL     1      34.426 -16.902 -21.465  0.00  0.00    -0.377 OA
ATOM     10  H   UNL     1      33.462 -16.951 -21.557  0.00  0.00    +0.211 HD
ENDBRANCH   1   9
BRANCH   1  11
ATOM     11  C   UNL     1      34.516 -18.281 -23.473  0.00  0.00    +0.241 C 
BRANCH  11  12
ATOM     12  O   UNL     1      35.023 -19.506 -23.986  0.00  0.00    -0.372 OA
ATOM     13  H   UNL     1      35.842 -19.736 -23.521  0.00  0.00    +0.211 HD
ENDBRANCH  11  12
BRANCH  11  15
ATOM     14  O   UNL     1      34.657 -17.051 -25.574  0.00  0.00    -0.247 OA
ATOM     15  C   UNL     1      34.970 -17.170 -24.397  0.00  0.00    +0.344 C 
BRANCH  15  16
ATOM     16  O   UNL     1      35.760 -16.285 -23.737  0.00  0.00    -0.478 OA
ATOM     17  H   UNL     1      35.381 -15.682 -23.130  0.00  0.00    +0.295 HD
ENDBRANCH  15  16
ENDBRANCH  11  15
ENDBRANCH   1  11
TORSDOF 6
ENDMDL
MODEL 3
REMARK VINA RESULT:      -7.2      1.014      2.308
REMARK  Name = 23644579
REMARK  6 active torsions:
REMARK  status: ('A' for Active; 'I' for Inactive)
REMARK    1  A    between atoms: C_1  and  C_3
REMARK    2  A    between atoms: C_1  and  O_9
REMARK    3  A    between atoms: C_1  and  C_11
REMARK    4  A    between atoms: C_11  and  O_12
REMARK    5  A    between atoms: C_11  and  C_15
REMARK    6  A    between atoms: C_15  and  O_16
REMARK                            x       y       z     vdW  Elec       q    Type
REMARK                         _______ _______ _______ _____ _____    ______ ____
ROOT
ATOM      1  C   UNL     1      34.472 -18.626 -22.237  0.00  0.00    +0.171 C 
ENDROOT
BRANCH   1   3
ATOM      2  F   UNL     1      34.543 -22.659 -18.289  0.00  0.00    -0.204 F 
ATOM      3  C   UNL     1      34.491 -19.708 -21.177  0.00  0.00    +0.007 C 
ATOM      4  C   UNL     1      33.297 -20.142 -20.600  0.00  0.00    +0.000 C 
ATOM      5  C   UNL     1      35.702 -20.273 -20.778  0.00  0.00    +0.000 C 
ATOM      6  C   UNL     1      33.314 -21.138 -19.625  0.00  0.00    +0.029 C 
ATOM      7  C   UNL     1      35.720 -21.270 -19.803  0.00  0.00    +0.029 C 
ATOM      8  C   UNL     1      34.526 -21.702 -19.226  0.00  0.00    +0.140 C 
ENDBRANCH   1   3
BRANCH   1   9
ATOM      9  O   UNL     1      34.895 -19.169 -23.489  0.00  0.00    -0.377 OA
ATOM     10  H   UNL     1      35.373 -18.490 -23.991  0.00  0.00    +0.211 HD
ENDBRANCH   1   9
BRANCH   1  11
ATOM     11  C   UNL     1      35.349 -17.427 -21.845  0.00  0.00    +0.241 C 
BRANCH  11  12
ATOM     12  O   UNL     1      35.088 -17.059 -20.498  0.00  0.00    -0.372 OA
ATOM     13  H   UNL     1      34.132 -17.074 -20.338  0.00  0.00    +0.211 HD
ENDBRANCH  11  12
BRANCH  11  15
ATOM     14  O   UNL     1      34.383 -15.258 -22.401  0.00  0.00    -0.247 OA
ATOM     15  C   UNL     1      35.071 -16.219 -22.716  0.00  0.00    +0.344 C 
BRANCH  15  16
ATOM     16  O   UNL     1      35.717 -16.322 -23.905  0.00  0.00    -0.478 OA
ATOM     17  H   UNL     1      35.235 -16.271 -24.706  0.00  0.00    +0.295 HD
ENDBRANCH  15  16
ENDBRANCH  11  15
ENDBRANCH   1  11
TORSDOF 6
ENDMDL
MODEL 4
REMARK VINA RESULT:      -7.1      8.545     10.602
REMARK  Name = 23644579
REMARK  6 active torsions:
REMARK  status: ('A' for Active; 'I' for Inactive)
REMARK    1  A    between atoms: C_1  and  C_3
REMARK    2  A    between atoms: C_1  and  O_9
REMARK    3  A    between atoms: C_1  and  C_11
REMARK    4  A    between atoms: C_11  and  O_12
REMARK    5  A    between atoms: C_11  and  C_15
REMARK    6  A    between atoms: C_15  and  O_16
REMARK                            x       y       z     vdW  Elec       q    Type
REMARK                         _______ _______ _______ _____ _____    ______ ____
ROOT
ATOM      1  C   UNL     1      35.329 -24.344 -13.073  0.00  0.00    +0.171 C 
ENDROOT
BRANCH   1   3
ATOM      2  F   UNL     1      36.778 -21.781 -17.889  0.00  0.00    -0.204 F 
ATOM      3  C   UNL     1      35.718 -23.656 -14.365  0.00  0.00    +0.007 C 
ATOM      4  C   UNL     1      37.041 -23.270 -14.580  0.00  0.00    +0.000 C 
ATOM      5  C   UNL     1      34.753 -23.408 -15.342  0.00  0.00    +0.000 C 
ATOM      6  C   UNL     1      37.400 -22.636 -15.770  0.00  0.00    +0.029 C 
ATOM      7  C   UNL     1      35.111 -22.775 -16.532  0.00  0.00    +0.029 C 
ATOM      8  C   UNL     1      36.434 -22.389 -16.746  0.00  0.00    +0.140 C 
ENDBRANCH   1   3
BRANCH   1   9
ATOM      9  O   UNL     1      34.409 -23.527 -12.348  0.00  0.00    -0.377 OA
ATOM     10  H   UNL     1      33.969 -22.916 -12.959  0.00  0.00    +0.211 HD
ENDBRANCH   1   9
BRANCH   1  11
ATOM     11  C   UNL     1      36.557 -24.673 -12.209  0.00  0.00    +0.241 C 
BRANCH  11  12
ATOM     12  O   UNL     1      36.550 -26.051 -11.865  0.00  0.00    -0.372 OA
ATOM     13  H   UNL     1      37.060 -26.551 -12.520  0.00  0.00    +0.211 HD
ENDBRANCH  11  12
BRANCH  11  15
ATOM     14  O   UNL     1      36.056 -24.222  -9.866  0.00  0.00    -0.247 OA
ATOM     15  C   UNL     1      36.567 -23.875 -10.921  0.00  0.00    +0.344 C 
BRANCH  15  16
ATOM     16  O   UNL     1      37.254 -22.715 -11.077  0.00  0.00    -0.478 OA
ATOM     17  H   UNL     1      37.167 -22.222 -11.869  0.00  0.00    +0.295 HD
ENDBRANCH  15  16
ENDBRANCH  11  15
ENDBRANCH   1  11
TORSDOF 6
ENDMDL
MODEL 5
REMARK VINA RESULT:      -7.0      1.122      1.971
REMARK  Name = 23644579
REMARK  6 active torsions:
REMARK  status: ('A' for Active; 'I' for Inactive)
REMARK    1  A    between atoms: C_1  and  C_3
REMARK    2  A    between atoms: C_1  and  O_9
REMARK    3  A    between atoms: C_1  and  C_11
REMARK    4  A    between atoms: C_11  and  O_12
REMARK    5  A    between atoms: C_11  and  C_15
REMARK    6  A    between atoms: C_15  and  O_16
REMARK                            x       y       z     vdW  Elec       q    Type
REMARK                         _______ _______ _______ _____ _____    ______ ____
ROOT
ATOM      1  C   UNL     1      35.450 -17.802 -21.468  0.00  0.00    +0.171 C 
ENDROOT
BRANCH   1   3
ATOM      2  F   UNL     1      33.372 -22.571 -19.280  0.00  0.00    -0.204 F 
ATOM      3  C   UNL     1      34.892 -19.082 -20.880  0.00  0.00    +0.007 C 
ATOM      4  C   UNL     1      33.513 -19.280 -20.821  0.00  0.00    +0.000 C 
ATOM      5  C   UNL     1      35.757 -20.064 -20.398  0.00  0.00    +0.000 C 
ATOM      6  C   UNL     1      32.999 -20.457 -20.281  0.00  0.00    +0.029 C 
ATOM      7  C   UNL     1      35.244 -21.243 -19.858  0.00  0.00    +0.029 C 
ATOM      8  C   UNL     1      33.864 -21.439 -19.799  0.00  0.00    +0.140 C 
ENDBRANCH   1   3
BRANCH   1   9
ATOM      9  O   UNL     1      35.333 -16.742 -20.518  0.00  0.00    -0.377 OA
ATOM     10  H   UNL     1      35.667 -15.920 -20.908  0.00  0.00    +0.211 HD
ENDBRANCH   1   9
BRANCH   1  11
ATOM     11  C   UNL     1      34.752 -17.426 -22.784  0.00  0.00    +0.241 C 
BRANCH  11  12
ATOM     12  O   UNL     1      35.619 -17.682 -23.881  0.00  0.00    -0.372 OA
ATOM     13  H   UNL     1      36.271 -18.354 -23.628  0.00  0.00    +0.211 HD
ENDBRANCH  11  12
BRANCH  11  15
ATOM     14  O   UNL     1      35.040 -15.071 -23.345  0.00  0.00    -0.247 OA
ATOM     15  C   UNL     1      34.379 -15.958 -22.824  0.00  0.00    +0.344 C 
BRANCH  15  16
ATOM     16  O   UNL     1      33.181 -15.748 -22.222  0.00  0.00    -0.478 OA
ATOM     17  H   UNL     1      32.423 -16.215 -22.512  0.00  0.00    +0.295 HD
ENDBRANCH  15  16
ENDBRANCH  11  15
ENDBRANCH   1  11
TORSDOF 6
ENDMDL
MODEL 6
REMARK VINA RESULT:      -6.9      7.964      9.910
REMARK  Name = 23644579
REMARK  6 active torsions:
REMARK  status: ('A' for Active; 'I' for Inactive)
REMARK    1  A    between atoms: C_1  and  C_3
REMARK    2  A    between atoms: C_1  and  O_9
REMARK    3  A    between atoms: C_1  and  C_11
REMARK    4  A    between atoms: C_11  and  O_12
REMARK    5  A    between atoms: C_11  and  C_15
REMARK    6  A    between atoms: C_15  and  O_16
REMARK                            x       y       z     vdW  Elec       q    Type
REMARK                         _______ _______ _______ _____ _____    ______ ____
ROOT
ATOM      1  C   UNL     1      37.066 -24.322 -13.852  0.00  0.00    +0.171 C 
ENDROOT
BRANCH   1   3
ATOM      2  F   UNL     1      35.438 -21.538 -18.484  0.00  0.00    -0.204 F 
ATOM      3  C   UNL     1      36.629 -23.575 -15.095  0.00  0.00    +0.007 C 
ATOM      4  C   UNL     1      35.306 -23.656 -15.530  0.00  0.00    +0.000 C 
ATOM      5  C   UNL     1      37.549 -22.805 -15.807  0.00  0.00    +0.000 C 
ATOM      6  C   UNL     1      34.903 -22.969 -16.674  0.00  0.00    +0.029 C 
ATOM      7  C   UNL     1      37.147 -22.117 -16.951  0.00  0.00    +0.029 C 
ATOM      8  C   UNL     1      35.824 -22.198 -17.385  0.00  0.00    +0.140 C 
ENDBRANCH   1   3
BRANCH   1   9
ATOM      9  O   UNL     1      38.469 -24.145 -13.650  0.00  0.00    -0.377 OA
ATOM     10  H   UNL     1      38.923 -24.993 -13.778  0.00  0.00    +0.211 HD
ENDBRANCH   1   9
BRANCH   1  11
ATOM     11  C   UNL     1      36.716 -25.816 -13.930  0.00  0.00    +0.241 C 
BRANCH  11  12
ATOM     12  O   UNL     1      36.788 -26.397 -12.635  0.00  0.00    -0.372 OA
ATOM     13  H   UNL     1      36.305 -25.841 -12.004  0.00  0.00    +0.211 HD
ENDBRANCH  11  12
BRANCH  11  15
ATOM     14  O   UNL     1      38.831 -26.855 -14.556  0.00  0.00    -0.247 OA
ATOM     15  C   UNL     1      37.673 -26.571 -14.829  0.00  0.00    +0.344 C 
BRANCH  15  16
ATOM     16  O   UNL     1      37.066 -26.928 -15.989  0.00  0.00    -0.478 OA
ATOM     17  H   UNL     1      36.874 -26.279 -16.636  0.00  0.00    +0.295 HD
ENDBRANCH  15  16
ENDBRANCH  11  15
ENDBRANCH   1  11
TORSDOF 6
ENDMDL
MODEL 7
REMARK VINA RESULT:      -6.8      8.723      9.807
REMARK  Name = 23644579
REMARK  6 active torsions:
REMARK  status: ('A' for Active; 'I' for Inactive)
REMARK    1  A    between atoms: C_1  and  C_3
REMARK    2  A    between atoms: C_1  and  O_9
REMARK    3  A    between atoms: C_1  and  C_11
REMARK    4  A    between atoms: C_11  and  O_12
REMARK    5  A    between atoms: C_11  and  C_15
REMARK    6  A    between atoms: C_15  and  O_16
REMARK                            x       y       z     vdW  Elec       q    Type
REMARK                         _______ _______ _______ _____ _____    ______ ____
ROOT
ATOM      1  C   UNL     1      28.437 -23.781 -15.989  0.00  0.00    +0.171 C 
ENDROOT
BRANCH   1   3
ATOM      2  F   UNL     1      33.672 -24.536 -14.019  0.00  0.00    -0.204 F 
ATOM      3  C   UNL     1      29.843 -23.984 -15.461  0.00  0.00    +0.007 C 
ATOM      4  C   UNL     1      30.911 -23.295 -16.035  0.00  0.00    +0.000 C 
ATOM      5  C   UNL     1      30.069 -24.859 -14.398  0.00  0.00    +0.000 C 
ATOM      6  C   UNL     1      32.204 -23.482 -15.549  0.00  0.00    +0.029 C 
ATOM      7  C   UNL     1      31.363 -25.046 -13.911  0.00  0.00    +0.029 C 
ATOM      8  C   UNL     1      32.430 -24.357 -14.486  0.00  0.00    +0.140 C 
ENDBRANCH   1   3
BRANCH   1   9
ATOM      9  O   UNL     1      28.294 -24.439 -17.248  0.00  0.00    -0.377 OA
ATOM     10  H   UNL     1      28.595 -25.358 -17.169  0.00  0.00    +0.211 HD
ENDBRANCH   1   9
BRANCH   1  11
ATOM     11  C   UNL     1      28.085 -22.291 -16.116  0.00  0.00    +0.241 C 
BRANCH  11  12
ATOM     12  O   UNL     1      28.191 -21.660 -14.847  0.00  0.00    -0.372 OA
ATOM     13  H   UNL     1      27.321 -21.647 -14.419  0.00  0.00    +0.211 HD
ENDBRANCH  11  12
BRANCH  11  15
ATOM     14  O   UNL     1      25.668 -22.039 -15.913  0.00  0.00    -0.247 OA
ATOM     15  C   UNL     1      26.668 -22.089 -16.615  0.00  0.00    +0.344 C 
BRANCH  15  16
ATOM     16  O   UNL     1      26.649 -21.937 -17.963  0.00  0.00    -0.478 OA
ATOM     17  H   UNL     1      26.835 -21.101 -18.343  0.00  0.00    +0.295 HD
ENDBRANCH  15  16
ENDBRANCH  11  15
ENDBRANCH   1  11
TORSDOF 6
ENDMDL
MODEL 8
REMARK VINA RESULT:      -6.8      3.781      6.131
REMARK  Name = 23644579
REMARK  6 active torsions:
REMARK  status: ('A' for Active; 'I' for Inactive)
REMARK    1  A    between atoms: C_1  and  C_3
REMARK    2  A    between atoms: C_1  and  O_9
REMARK    3  A    between atoms: C_1  and  C_11
REMARK    4  A    between atoms: C_11  and  O_12
REMARK    5  A    between atoms: C_11  and  C_15
REMARK    6  A    between atoms: C_15  and  O_16
REMARK                            x       y       z     vdW  Elec       q    Type
REMARK                         _______ _______ _______ _____ _____    ______ ____
ROOT
ATOM      1  C   UNL     1      35.472 -16.798 -22.695  0.00  0.00    +0.171 C 
ENDROOT
BRANCH   1   3
ATOM      2  F   UNL     1      32.393 -13.853 -26.396  0.00  0.00    -0.204 F 
ATOM      3  C   UNL     1      34.645 -16.008 -23.688  0.00  0.00    +0.007 C 
ATOM      4  C   UNL     1      34.186 -14.733 -23.356  0.00  0.00    +0.000 C 
ATOM      5  C   UNL     1      34.344 -16.554 -24.936  0.00  0.00    +0.000 C 
ATOM      6  C   UNL     1      33.425 -14.006 -24.270  0.00  0.00    +0.029 C 
ATOM      7  C   UNL     1      33.583 -15.826 -25.851  0.00  0.00    +0.029 C 
ATOM      8  C   UNL     1      33.124 -14.552 -25.518  0.00  0.00    +0.140 C 
ENDBRANCH   1   3
BRANCH   1   9
ATOM      9  O   UNL     1      36.009 -17.960 -23.329  0.00  0.00    -0.377 OA
ATOM     10  H   UNL     1      36.408 -18.538 -22.661  0.00  0.00    +0.211 HD
ENDBRANCH   1   9
BRANCH   1  11
ATOM     11  C   UNL     1      34.655 -17.190 -21.454  0.00  0.00    +0.241 C 
BRANCH  11  12
ATOM     12  O   UNL     1      35.119 -16.467 -20.323  0.00  0.00    -0.372 OA
ATOM     13  H   UNL     1      36.054 -16.243 -20.443  0.00  0.00    +0.211 HD
ENDBRANCH  11  12
BRANCH  11  15
ATOM     14  O   UNL     1      33.972 -19.531 -21.455  0.00  0.00    -0.247 OA
ATOM     15  C   UNL     1      34.780 -18.667 -21.142  0.00  0.00    +0.344 C 
BRANCH  15  16
ATOM     16  O   UNL     1      35.938 -18.925 -20.484  0.00  0.00    -0.478 OA
ATOM     17  H   UNL     1      36.428 -19.698 -20.683  0.00  0.00    +0.295 HD
ENDBRANCH  15  16
ENDBRANCH  11  15
ENDBRANCH   1  11
TORSDOF 6
ENDMDL
MODEL 9
REMARK VINA RESULT:      -6.7      3.570      5.471
REMARK  Name = 23644579
REMARK  6 active torsions:
REMARK  status: ('A' for Active; 'I' for Inactive)
REMARK    1  A    between atoms: C_1  and  C_3
REMARK    2  A    between atoms: C_1  and  O_9
REMARK    3  A    between atoms: C_1  and  C_11
REMARK    4  A    between atoms: C_11  and  O_12
REMARK    5  A    between atoms: C_11  and  C_15
REMARK    6  A    between atoms: C_15  and  O_16
REMARK                            x       y       z     vdW  Elec       q    Type
REMARK                         _______ _______ _______ _____ _____    ______ ____
ROOT
ATOM      1  C   UNL     1      34.693 -19.321 -20.727  0.00  0.00    +0.171 C 
ENDROOT
BRANCH   1   3
ATOM      2  F   UNL     1      34.980 -16.625 -25.677  0.00  0.00    -0.204 F 
ATOM      3  C   UNL     1      34.769 -18.597 -22.056  0.00  0.00    +0.007 C 
ATOM      4  C   UNL     1      34.895 -17.209 -22.088  0.00  0.00    +0.000 C 
ATOM      5  C   UNL     1      34.715 -19.319 -23.248  0.00  0.00    +0.000 C 
ATOM      6  C   UNL     1      34.966 -16.542 -23.311  0.00  0.00    +0.029 C 
ATOM      7  C   UNL     1      34.786 -18.654 -24.472  0.00  0.00    +0.029 C 
ATOM      8  C   UNL     1      34.912 -17.265 -24.503  0.00  0.00    +0.140 C 
ENDBRANCH   1   3
BRANCH   1   9
ATOM      9  O   UNL     1      35.998 -19.752 -20.336  0.00  0.00    -0.377 OA
ATOM     10  H   UNL     1      36.066 -19.736 -19.369  0.00  0.00    +0.211 HD
ENDBRANCH   1   9
BRANCH   1  11
ATOM     11  C   UNL     1      33.725 -20.513 -20.781  0.00  0.00    +0.241 C 
BRANCH  11  12
ATOM     12  O   UNL     1      32.384 -20.045 -20.798  0.00  0.00    -0.372 OA
ATOM     13  H   UNL     1      31.778 -20.798 -20.719  0.00  0.00    +0.211 HD
ENDBRANCH  11  12
BRANCH  11  15
ATOM     14  O   UNL     1      34.923 -21.960 -19.226  0.00  0.00    -0.247 OA
ATOM     15  C   UNL     1      33.883 -21.420 -19.578  0.00  0.00    +0.344 C 
BRANCH  15  16
ATOM     16  O   UNL     1      32.711 -21.539 -18.906  0.00  0.00    -0.478 OA
ATOM     17  H   UNL     1      31.908 -21.643 -19.378  0.00  0.00    +0.295 HD
ENDBRANCH  15  16
ENDBRANCH  11  15
ENDBRANCH   1  11
TORSDOF 6
ENDMDL
