MODEL 1
REMARK VINA RESULT:      -6.7      0.000      0.000
REMARK  Name = 656894
REMARK  7 active torsions:
REMARK  status: ('A' for Active; 'I' for Inactive)
REMARK    1  A    between atoms: C_2  and  O_7
REMARK    2  A    between atoms: C_3  and  O_9
REMARK    3  A    between atoms: C_4  and  O_11
REMARK    4  A    between atoms: C_5  and  C_17
REMARK    5  A    between atoms: C_6  and  S_13
REMARK    6  A    between atoms: S_13  and  C_14
REMARK    7  A    between atoms: C_17  and  O_18
REMARK                            x       y       z     vdW  Elec       q    Type
REMARK                         _______ _______ _______ _____ _____    ______ ____
ROOT
ATOM      1  O   UNL     1      36.210 -23.530 -13.731  0.00  0.00    -0.340 OA
ATOM      2  C   UNL     1      37.387 -26.134 -13.954  0.00  0.00    +0.170 C 
ATOM      3  C   UNL     1      38.040 -25.012 -13.146  0.00  0.00    +0.169 C 
ATOM      4  C   UNL     1      36.477 -25.573 -15.052  0.00  0.00    +0.177 C 
ATOM      5  C   UNL     1      36.964 -24.052 -12.630  0.00  0.00    +0.175 C 
ATOM      6  C   UNL     1      35.509 -24.539 -14.461  0.00  0.00    +0.192 C 
ENDROOT
BRANCH   2   7
ATOM      7  O   UNL     1      38.389 -26.954 -14.550  0.00  0.00    -0.379 OA
ATOM      8  H   UNL     1      39.034 -26.393 -15.009  0.00  0.00    +0.211 HD
ENDBRANCH   2   7
BRANCH   3   9
ATOM      9  O   UNL     1      38.949 -24.289 -13.979  0.00  0.00    -0.379 OA
ATOM     10  H   UNL     1      38.617 -23.388 -14.114  0.00  0.00    +0.211 HD
ENDBRANCH   3   9
BRANCH   4  11
ATOM     11  O   UNL     1      35.734 -26.652 -15.619  0.00  0.00    -0.379 OA
ATOM     12  H   UNL     1      36.280 -27.453 -15.622  0.00  0.00    +0.211 HD
ENDBRANCH   4  11
BRANCH   6  13
ATOM     13  S   UNL     1      34.529 -23.762 -15.797  0.00  0.00    -0.110 S 
BRANCH  13  14
ATOM     14  C   UNL     1      33.027 -23.439 -14.849  0.00  0.00    +0.050 C 
ATOM     15  C   UNL     1      31.844 -23.286 -15.797  0.00  0.00    +0.012 C 
ATOM     16  C   UNL     1      32.798 -24.567 -13.851  0.00  0.00    +0.012 C 
ENDBRANCH  13  14
ENDBRANCH   6  13
BRANCH   5  17
ATOM     17  C   UNL     1      37.556 -22.864 -11.882  0.00  0.00    +0.169 C 
BRANCH  17  18
ATOM     18  O   UNL     1      38.889 -23.177 -11.520  0.00  0.00    -0.379 OA
ATOM     19  H   UNL     1      38.916 -23.454 -10.590  0.00  0.00    +0.211 HD
ENDBRANCH  17  18
ENDBRANCH   5  17
TORSDOF 7
ENDMDL
MODEL 2
REMARK VINA RESULT:      -6.6      2.074      3.402
REMARK  Name = 656894
REMARK  7 active torsions:
REMARK  status: ('A' for Active; 'I' for Inactive)
REMARK    1  A    between atoms: C_2  and  O_7
REMARK    2  A    between atoms: C_3  and  O_9
REMARK    3  A    between atoms: C_4  and  O_11
REMARK    4  A    between atoms: C_5  and  C_17
REMARK    5  A    between atoms: C_6  and  S_13
REMARK    6  A    between atoms: S_13  and  C_14
REMARK    7  A    between atoms: C_17  and  O_18
REMARK                            x       y       z     vdW  Elec       q    Type
REMARK                         _______ _______ _______ _____ _____    ______ ____
ROOT
ATOM      1  O   UNL     1      36.827 -24.975 -14.328  0.00  0.00    -0.340 OA
ATOM      2  C   UNL     1      36.007 -24.417 -11.639  0.00  0.00    +0.170 C 
ATOM      3  C   UNL     1      37.255 -25.242 -11.955  0.00  0.00    +0.169 C 
ATOM      4  C   UNL     1      34.993 -24.480 -12.785  0.00  0.00    +0.177 C 
ATOM      5  C   UNL     1      37.825 -24.820 -13.312  0.00  0.00    +0.175 C 
ATOM      6  C   UNL     1      35.679 -24.151 -14.119  0.00  0.00    +0.192 C 
ENDROOT
BRANCH   2   7
ATOM      7  O   UNL     1      35.394 -24.896 -10.444  0.00  0.00    -0.379 OA
ATOM      8  H   UNL     1      34.448 -24.683 -10.460  0.00  0.00    +0.211 HD
ENDBRANCH   2   7
BRANCH   3   9
ATOM      9  O   UNL     1      36.912 -26.629 -12.004  0.00  0.00    -0.379 OA
ATOM     10  H   UNL     1      37.483 -27.081 -12.645  0.00  0.00    +0.211 HD
ENDBRANCH   3   9
BRANCH   4  11
ATOM     11  O   UNL     1      33.963 -23.525 -12.531  0.00  0.00    -0.379 OA
ATOM     12  H   UNL     1      33.138 -23.988 -12.318  0.00  0.00    +0.211 HD
ENDBRANCH   4  11
BRANCH   6  13
ATOM     13  S   UNL     1      34.501 -24.375 -15.501  0.00  0.00    -0.110 S 
BRANCH  13  14
ATOM     14  C   UNL     1      34.795 -22.802 -16.336  0.00  0.00    +0.050 C 
ATOM     15  C   UNL     1      36.293 -22.549 -16.444  0.00  0.00    +0.012 C 
ATOM     16  C   UNL     1      34.132 -22.817 -17.708  0.00  0.00    +0.012 C 
ENDBRANCH  13  14
ENDBRANCH   6  13
BRANCH   5  17
ATOM     17  C   UNL     1      39.028 -25.661 -13.724  0.00  0.00    +0.169 C 
BRANCH  17  18
ATOM     18  O   UNL     1      38.570 -26.749 -14.507  0.00  0.00    -0.379 OA
ATOM     19  H   UNL     1      38.002 -26.417 -15.221  0.00  0.00    +0.211 HD
ENDBRANCH  17  18
ENDBRANCH   5  17
TORSDOF 7
ENDMDL
MODEL 3
REMARK VINA RESULT:      -6.5      1.740      2.301
REMARK  Name = 656894
REMARK  7 active torsions:
REMARK  status: ('A' for Active; 'I' for Inactive)
REMARK    1  A    between atoms: C_2  and  O_7
REMARK    2  A    between atoms: C_3  and  O_9
REMARK    3  A    between atoms: C_4  and  O_11
REMARK    4  A    between atoms: C_5  and  C_17
REMARK    5  A    between atoms: C_6  and  S_13
REMARK    6  A    between atoms: S_13  and  C_14
REMARK    7  A    between atoms: C_17  and  O_18
REMARK                            x       y       z     vdW  Elec       q    Type
REMARK                         _______ _______ _______ _____ _____    ______ ____
ROOT
ATOM      1  O   UNL     1      35.835 -23.456 -12.824  0.00  0.00    -0.340 OA
ATOM      2  C   UNL     1      38.279 -24.860 -13.344  0.00  0.00    +0.170 C 
ATOM      3  C   UNL     1      37.868 -24.436 -11.934  0.00  0.00    +0.169 C 
ATOM      4  C   UNL     1      37.632 -23.964 -14.405  0.00  0.00    +0.177 C 
ATOM      5  C   UNL     1      36.342 -24.365 -11.838  0.00  0.00    +0.175 C 
ATOM      6  C   UNL     1      36.119 -23.863 -14.163  0.00  0.00    +0.192 C 
ENDROOT
BRANCH   2   7
ATOM      7  O   UNL     1      39.697 -24.797 -13.480  0.00  0.00    -0.379 OA
ATOM      8  H   UNL     1      39.957 -23.899 -13.737  0.00  0.00    +0.211 HD
ENDBRANCH   2   7
BRANCH   3   9
ATOM      9  O   UNL     1      38.414 -23.147 -11.643  0.00  0.00    -0.379 OA
ATOM     10  H   UNL     1      38.282 -22.945 -10.704  0.00  0.00    +0.211 HD
ENDBRANCH   3   9
BRANCH   4  11
ATOM     11  O   UNL     1      37.871 -24.539 -15.690  0.00  0.00    -0.379 OA
ATOM     12  H   UNL     1      37.047 -24.545 -16.200  0.00  0.00    +0.211 HD
ENDBRANCH   4  11
BRANCH   6  13
ATOM     13  S   UNL     1      35.374 -22.675 -15.338  0.00  0.00    -0.110 S 
BRANCH  13  14
ATOM     14  C   UNL     1      33.895 -23.625 -15.749  0.00  0.00    +0.050 C 
ATOM     15  C   UNL     1      32.797 -23.330 -14.736  0.00  0.00    +0.012 C 
ATOM     16  C   UNL     1      33.448 -23.292 -17.167  0.00  0.00    +0.012 C 
ENDBRANCH  13  14
ENDBRANCH   6  13
BRANCH   5  17
ATOM     17  C   UNL     1      35.867 -23.870 -10.477  0.00  0.00    +0.169 C 
BRANCH  17  18
ATOM     18  O   UNL     1      35.278 -24.954  -9.782  0.00  0.00    -0.379 OA
ATOM     19  H   UNL     1      34.809 -24.621  -9.000  0.00  0.00    +0.211 HD
ENDBRANCH  17  18
ENDBRANCH   5  17
TORSDOF 7
ENDMDL
MODEL 4
REMARK VINA RESULT:      -6.1     10.238     11.732
REMARK  Name = 656894
REMARK  7 active torsions:
REMARK  status: ('A' for Active; 'I' for Inactive)
REMARK    1  A    between atoms: C_2  and  O_7
REMARK    2  A    between atoms: C_3  and  O_9
REMARK    3  A    between atoms: C_4  and  O_11
REMARK    4  A    between atoms: C_5  and  C_17
REMARK    5  A    between atoms: C_6  and  S_13
REMARK    6  A    between atoms: S_13  and  C_14
REMARK    7  A    between atoms: C_17  and  O_18
REMARK                            x       y       z     vdW  Elec       q    Type
REMARK                         _______ _______ _______ _____ _____    ______ ____
ROOT
ATOM      1  O   UNL     1      34.880 -17.453 -21.276  0.00  0.00    -0.340 OA
ATOM      2  C   UNL     1      34.413 -17.539 -24.102  0.00  0.00    +0.170 C 
ATOM      3  C   UNL     1      35.098 -18.684 -23.356  0.00  0.00    +0.169 C 
ATOM      4  C   UNL     1      34.586 -16.209 -23.362  0.00  0.00    +0.177 C 
ATOM      5  C   UNL     1      34.618 -18.715 -21.902  0.00  0.00    +0.175 C 
ATOM      6  C   UNL     1      34.186 -16.366 -21.888  0.00  0.00    +0.192 C 
ENDROOT
BRANCH   2   7
ATOM      7  O   UNL     1      34.954 -17.418 -25.415  0.00  0.00    -0.379 OA
ATOM      8  H   UNL     1      35.168 -18.299 -25.759  0.00  0.00    +0.211 HD
ENDBRANCH   2   7
BRANCH   3   9
ATOM      9  O   UNL     1      36.515 -18.487 -23.374  0.00  0.00    -0.379 OA
ATOM     10  H   UNL     1      36.713 -17.595 -23.699  0.00  0.00    +0.211 HD
ENDBRANCH   3   9
BRANCH   4  11
ATOM     11  O   UNL     1      33.748 -15.234 -23.982  0.00  0.00    -0.379 OA
ATOM     12  H   UNL     1      33.572 -14.514 -23.357  0.00  0.00    +0.211 HD
ENDBRANCH   4  11
BRANCH   6  13
ATOM     13  S   UNL     1      34.536 -14.819 -20.975  0.00  0.00    -0.110 S 
BRANCH  13  14
ATOM     14  C   UNL     1      32.844 -14.437 -20.474  0.00  0.00    +0.050 C 
ATOM     15  C   UNL     1      32.270 -13.358 -21.383  0.00  0.00    +0.012 C 
ATOM     16  C   UNL     1      31.999 -15.705 -20.512  0.00  0.00    +0.012 C 
ENDBRANCH  13  14
ENDBRANCH   6  13
BRANCH   5  17
ATOM     17  C   UNL     1      35.324 -19.786 -21.080  0.00  0.00    +0.169 C 
BRANCH  17  18
ATOM     18  O   UNL     1      36.449 -19.202 -20.448  0.00  0.00    -0.379 OA
ATOM     19  H   UNL     1      36.485 -18.256 -20.663  0.00  0.00    +0.211 HD
ENDBRANCH  17  18
ENDBRANCH   5  17
TORSDOF 7
ENDMDL
MODEL 5
REMARK VINA RESULT:      -6.1     11.087     12.725
REMARK  Name = 656894
REMARK  7 active torsions:
REMARK  status: ('A' for Active; 'I' for Inactive)
REMARK    1  A    between atoms: C_2  and  O_7
REMARK    2  A    between atoms: C_3  and  O_9
REMARK    3  A    between atoms: C_4  and  O_11
REMARK    4  A    between atoms: C_5  and  C_17
REMARK    5  A    between atoms: C_6  and  S_13
REMARK    6  A    between atoms: S_13  and  C_14
REMARK    7  A    between atoms: C_17  and  O_18
REMARK                            x       y       z     vdW  Elec       q    Type
REMARK                         _______ _______ _______ _____ _____    ______ ____
ROOT
ATOM      1  O   UNL     1      34.654 -16.352 -22.264  0.00  0.00    -0.340 OA
ATOM      2  C   UNL     1      33.933 -14.968 -24.668  0.00  0.00    +0.170 C 
ATOM      3  C   UNL     1      33.658 -14.386 -23.281  0.00  0.00    +0.169 C 
ATOM      4  C   UNL     1      34.022 -16.497 -24.624  0.00  0.00    +0.177 C 
ATOM      5  C   UNL     1      34.690 -14.919 -22.283  0.00  0.00    +0.175 C 
ATOM      6  C   UNL     1      34.994 -16.939 -23.520  0.00  0.00    +0.192 C 
ENDROOT
BRANCH   2   7
ATOM      7  O   UNL     1      32.899 -14.585 -25.572  0.00  0.00    -0.379 OA
ATOM      8  H   UNL     1      33.293 -14.314 -26.416  0.00  0.00    +0.211 HD
ENDBRANCH   2   7
BRANCH   3   9
ATOM      9  O   UNL     1      32.351 -14.772 -22.850  0.00  0.00    -0.379 OA
ATOM     10  H   UNL     1      32.167 -15.677 -23.147  0.00  0.00    +0.211 HD
ENDBRANCH   3   9
BRANCH   4  11
ATOM     11  O   UNL     1      34.494 -16.959 -25.889  0.00  0.00    -0.379 OA
ATOM     12  H   UNL     1      34.115 -17.832 -26.076  0.00  0.00    +0.211 HD
ENDBRANCH   4  11
BRANCH   6  13
ATOM     13  S   UNL     1      34.982 -18.763 -23.370  0.00  0.00    -0.110 S 
BRANCH  13  14
ATOM     14  C   UNL     1      34.862 -18.864 -21.572  0.00  0.00    +0.050 C 
ATOM     15  C   UNL     1      33.750 -19.829 -21.184  0.00  0.00    +0.012 C 
ATOM     16  C   UNL     1      36.203 -19.297 -20.991  0.00  0.00    +0.012 C 
ENDBRANCH  13  14
ENDBRANCH   6  13
BRANCH   5  17
ATOM     17  C   UNL     1      34.424 -14.439 -20.860  0.00  0.00    +0.169 C 
BRANCH  17  18
ATOM     18  O   UNL     1      34.872 -15.434 -19.957  0.00  0.00    -0.379 OA
ATOM     19  H   UNL     1      35.458 -15.031 -19.297  0.00  0.00    +0.211 HD
ENDBRANCH  17  18
ENDBRANCH   5  17
TORSDOF 7
ENDMDL
MODEL 6
REMARK VINA RESULT:      -6.1     10.997     12.662
REMARK  Name = 656894
REMARK  7 active torsions:
REMARK  status: ('A' for Active; 'I' for Inactive)
REMARK    1  A    between atoms: C_2  and  O_7
REMARK    2  A    between atoms: C_3  and  O_9
REMARK    3  A    between atoms: C_4  and  O_11
REMARK    4  A    between atoms: C_5  and  C_17
REMARK    5  A    between atoms: C_6  and  S_13
REMARK    6  A    between atoms: S_13  and  C_14
REMARK    7  A    between atoms: C_17  and  O_18
REMARK                            x       y       z     vdW  Elec       q    Type
REMARK                         _______ _______ _______ _____ _____    ______ ____
ROOT
ATOM      1  O   UNL     1      33.798 -16.406 -23.414  0.00  0.00    -0.340 OA
ATOM      2  C   UNL     1      35.718 -17.565 -21.628  0.00  0.00    +0.170 C 
ATOM      3  C   UNL     1      35.382 -18.192 -22.981  0.00  0.00    +0.169 C 
ATOM      4  C   UNL     1      34.557 -16.711 -21.107  0.00  0.00    +0.177 C 
ATOM      5  C   UNL     1      34.925 -17.105 -23.957  0.00  0.00    +0.175 C 
ATOM      6  C   UNL     1      34.093 -15.729 -22.191  0.00  0.00    +0.192 C 
ENDROOT
BRANCH   2   7
ATOM      7  O   UNL     1      36.013 -18.584 -20.676  0.00  0.00    -0.379 OA
ATOM      8  H   UNL     1      35.225 -18.763 -20.140  0.00  0.00    +0.211 HD
ENDBRANCH   2   7
BRANCH   3   9
ATOM      9  O   UNL     1      34.330 -19.146 -22.819  0.00  0.00    -0.379 OA
ATOM     10  H   UNL     1      34.709 -20.035 -22.738  0.00  0.00    +0.211 HD
ENDBRANCH   3   9
BRANCH   4  11
ATOM     11  O   UNL     1      35.007 -15.983 -19.965  0.00  0.00    -0.379 OA
ATOM     12  H   UNL     1      34.787 -16.476 -19.160  0.00  0.00    +0.211 HD
ENDBRANCH   4  11
BRANCH   6  13
ATOM     13  S   UNL     1      32.612 -14.818 -21.620  0.00  0.00    -0.110 S 
BRANCH  13  14
ATOM     14  C   UNL     1      32.588 -13.550 -22.905  0.00  0.00    +0.050 C 
ATOM     15  C   UNL     1      32.002 -12.261 -22.344  0.00  0.00    +0.012 C 
ATOM     16  C   UNL     1      33.999 -13.335 -23.439  0.00  0.00    +0.012 C 
ENDBRANCH  13  14
ENDBRANCH   6  13
BRANCH   5  17
ATOM     17  C   UNL     1      34.498 -17.676 -25.305  0.00  0.00    +0.169 C 
BRANCH  17  18
ATOM     18  O   UNL     1      33.632 -16.749 -25.934  0.00  0.00    -0.379 OA
ATOM     19  H   UNL     1      33.757 -15.871 -25.540  0.00  0.00    +0.211 HD
ENDBRANCH  17  18
ENDBRANCH   5  17
TORSDOF 7
ENDMDL
MODEL 7
REMARK VINA RESULT:      -6.0     10.184     11.672
REMARK  Name = 656894
REMARK  7 active torsions:
REMARK  status: ('A' for Active; 'I' for Inactive)
REMARK    1  A    between atoms: C_2  and  O_7
REMARK    2  A    between atoms: C_3  and  O_9
REMARK    3  A    between atoms: C_4  and  O_11
REMARK    4  A    between atoms: C_5  and  C_17
REMARK    5  A    between atoms: C_6  and  S_13
REMARK    6  A    between atoms: S_13  and  C_14
REMARK    7  A    between atoms: C_17  and  O_18
REMARK                            x       y       z     vdW  Elec       q    Type
REMARK                         _______ _______ _______ _____ _____    ______ ____
ROOT
ATOM      1  O   UNL     1      34.271 -16.903 -21.519  0.00  0.00    -0.340 OA
ATOM      2  C   UNL     1      35.143 -16.880 -24.249  0.00  0.00    +0.170 C 
ATOM      3  C   UNL     1      34.670 -15.614 -23.535  0.00  0.00    +0.169 C 
ATOM      4  C   UNL     1      34.536 -18.136 -23.616  0.00  0.00    +0.177 C 
ATOM      5  C   UNL     1      34.930 -15.739 -22.031  0.00  0.00    +0.175 C 
ATOM      6  C   UNL     1      34.748 -18.119 -22.095  0.00  0.00    +0.192 C 
ENDROOT
BRANCH   2   7
ATOM      7  O   UNL     1      34.782 -16.829 -25.627  0.00  0.00    -0.379 OA
ATOM      8  H   UNL     1      34.602 -15.910 -25.879  0.00  0.00    +0.211 HD
ENDBRANCH   2   7
BRANCH   3   9
ATOM      9  O   UNL     1      33.268 -15.437 -23.752  0.00  0.00    -0.379 OA
ATOM     10  H   UNL     1      32.776 -16.093 -23.235  0.00  0.00    +0.211 HD
ENDBRANCH   3   9
BRANCH   4  11
ATOM     11  O   UNL     1      35.180 -19.281 -24.174  0.00  0.00    -0.379 OA
ATOM     12  H   UNL     1      35.102 -19.257 -25.140  0.00  0.00    +0.211 HD
ENDBRANCH   4  11
BRANCH   6  13
ATOM     13  S   UNL     1      33.891 -19.543 -21.327  0.00  0.00    -0.110 S 
BRANCH  13  14
ATOM     14  C   UNL     1      35.355 -20.470 -20.822  0.00  0.00    +0.050 C 
ATOM     15  C   UNL     1      36.518 -19.513 -20.596  0.00  0.00    +0.012 C 
ATOM     16  C   UNL     1      35.044 -21.274 -19.565  0.00  0.00    +0.012 C 
ENDBRANCH  13  14
ENDBRANCH   6  13
BRANCH   5  17
ATOM     17  C   UNL     1      34.407 -14.539 -21.249  0.00  0.00    +0.169 C 
BRANCH  17  18
ATOM     18  O   UNL     1      33.072 -14.804 -20.857  0.00  0.00    -0.379 OA
ATOM     19  H   UNL     1      32.828 -14.216 -20.123  0.00  0.00    +0.211 HD
ENDBRANCH  17  18
ENDBRANCH   5  17
TORSDOF 7
ENDMDL
MODEL 8
REMARK VINA RESULT:      -6.0      1.902      2.664
REMARK  Name = 656894
REMARK  7 active torsions:
REMARK  status: ('A' for Active; 'I' for Inactive)
REMARK    1  A    between atoms: C_2  and  O_7
REMARK    2  A    between atoms: C_3  and  O_9
REMARK    3  A    between atoms: C_4  and  O_11
REMARK    4  A    between atoms: C_5  and  C_17
REMARK    5  A    between atoms: C_6  and  S_13
REMARK    6  A    between atoms: S_13  and  C_14
REMARK    7  A    between atoms: C_17  and  O_18
REMARK                            x       y       z     vdW  Elec       q    Type
REMARK                         _______ _______ _______ _____ _____    ______ ____
ROOT
ATOM      1  O   UNL     1      35.484 -23.695 -14.804  0.00  0.00    -0.340 OA
ATOM      2  C   UNL     1      36.956 -24.504 -12.482  0.00  0.00    +0.170 C 
ATOM      3  C   UNL     1      37.642 -24.195 -13.813  0.00  0.00    +0.169 C 
ATOM      4  C   UNL     1      35.499 -24.930 -12.691  0.00  0.00    +0.177 C 
ATOM      5  C   UNL     1      36.807 -23.182 -14.602  0.00  0.00    +0.175 C 
ATOM      6  C   UNL     1      34.774 -23.914 -13.585  0.00  0.00    +0.192 C 
ENDROOT
BRANCH   2   7
ATOM      7  O   UNL     1      37.654 -25.545 -11.802  0.00  0.00    -0.379 OA
ATOM      8  H   UNL     1      38.562 -25.258 -11.618  0.00  0.00    +0.211 HD
ENDBRANCH   2   7
BRANCH   3   9
ATOM      9  O   UNL     1      37.765 -25.396 -14.579  0.00  0.00    -0.379 OA
ATOM     10  H   UNL     1      38.592 -25.844 -14.346  0.00  0.00    +0.211 HD
ENDBRANCH   3   9
BRANCH   4  11
ATOM     11  O   UNL     1      34.857 -24.988 -11.418  0.00  0.00    -0.379 OA
ATOM     12  H   UNL     1      35.321 -25.624 -10.851  0.00  0.00    +0.211 HD
ENDBRANCH   4  11
BRANCH   6  13
ATOM     13  S   UNL     1      33.081 -24.502 -13.956  0.00  0.00    -0.110 S 
BRANCH  13  14
ATOM     14  C   UNL     1      32.525 -23.074 -14.910  0.00  0.00    +0.050 C 
ATOM     15  C   UNL     1      32.569 -23.400 -16.397  0.00  0.00    +0.012 C 
ATOM     16  C   UNL     1      31.121 -22.677 -14.469  0.00  0.00    +0.012 C 
ENDBRANCH  13  14
ENDBRANCH   6  13
BRANCH   5  17
ATOM     17  C   UNL     1      37.396 -22.891 -15.977  0.00  0.00    +0.169 C 
BRANCH  17  18
ATOM     18  O   UNL     1      38.748 -23.314 -15.989  0.00  0.00    -0.379 OA
ATOM     19  H   UNL     1      38.996 -23.626 -15.103  0.00  0.00    +0.211 HD
ENDBRANCH  17  18
ENDBRANCH   5  17
TORSDOF 7
ENDMDL
MODEL 9
REMARK VINA RESULT:      -6.0     13.419     14.905
REMARK  Name = 656894
REMARK  7 active torsions:
REMARK  status: ('A' for Active; 'I' for Inactive)
REMARK    1  A    between atoms: C_2  and  O_7
REMARK    2  A    between atoms: C_3  and  O_9
REMARK    3  A    between atoms: C_4  and  O_11
REMARK    4  A    between atoms: C_5  and  C_17
REMARK    5  A    between atoms: C_6  and  S_13
REMARK    6  A    between atoms: S_13  and  C_14
REMARK    7  A    between atoms: C_17  and  O_18
REMARK                            x       y       z     vdW  Elec       q    Type
REMARK                         _______ _______ _______ _____ _____    ______ ____
ROOT
ATOM      1  O   UNL     1      33.925 -13.812 -23.781  0.00  0.00    -0.340 OA
ATOM      2  C   UNL     1      33.762 -16.413 -24.975  0.00  0.00    +0.170 C 
ATOM      3  C   UNL     1      34.383 -16.188 -23.596  0.00  0.00    +0.169 C 
ATOM      4  C   UNL     1      33.834 -15.144 -25.832  0.00  0.00    +0.177 C 
ATOM      5  C   UNL     1      33.751 -14.958 -22.938  0.00  0.00    +0.175 C 
ATOM      6  C   UNL     1      33.283 -13.944 -25.049  0.00  0.00    +0.192 C 
ENDROOT
BRANCH   2   7
ATOM      7  O   UNL     1      34.438 -17.471 -25.650  0.00  0.00    -0.379 OA
ATOM      8  H   UNL     1      35.068 -17.891 -25.042  0.00  0.00    +0.211 HD
ENDBRANCH   2   7
BRANCH   3   9
ATOM      9  O   UNL     1      35.790 -15.972 -23.733  0.00  0.00    -0.379 OA
ATOM     10  H   UNL     1      36.140 -15.595 -22.912  0.00  0.00    +0.211 HD
ENDBRANCH   3   9
BRANCH   4  11
ATOM     11  O   UNL     1      33.051 -15.347 -27.008  0.00  0.00    -0.379 OA
ATOM     12  H   UNL     1      32.337 -15.974 -26.816  0.00  0.00    +0.211 HD
ENDBRANCH   4  11
BRANCH   6  13
ATOM     13  S   UNL     1      33.509 -12.407 -26.016  0.00  0.00    -0.110 S 
BRANCH  13  14
ATOM     14  C   UNL     1      34.237 -11.396 -24.710  0.00  0.00    +0.050 C 
ATOM     15  C   UNL     1      35.254 -10.434 -25.310  0.00  0.00    +0.012 C 
ATOM     16  C   UNL     1      33.136 -10.650 -23.965  0.00  0.00    +0.012 C 
ENDBRANCH  13  14
ENDBRANCH   6  13
BRANCH   5  17
ATOM     17  C   UNL     1      34.383 -14.631 -21.590  0.00  0.00    +0.169 C 
BRANCH  17  18
ATOM     18  O   UNL     1      34.848 -15.835 -21.006  0.00  0.00    -0.379 OA
ATOM     19  H   UNL     1      35.355 -16.339 -21.663  0.00  0.00    +0.211 HD
ENDBRANCH  17  18
ENDBRANCH   5  17
TORSDOF 7
ENDMDL
