MODEL 1
REMARK VINA RESULT:      -6.0      0.000      0.000
REMARK  Name = 445935
REMARK  5 active torsions:
REMARK  status: ('A' for Active; 'I' for Inactive)
REMARK    1  A    between atoms: C_2  and  O_6
REMARK    2  A    between atoms: C_3  and  C_12
REMARK    3  A    between atoms: C_4  and  O_8
REMARK    4  A    between atoms: C_5  and  O_10
REMARK    5  A    between atoms: C_12  and  O_13
REMARK                            x       y       z     vdW  Elec       q    Type
REMARK                         _______ _______ _______ _____ _____    ______ ____
ROOT
ATOM      1  O   UNL     1      38.574 -26.338 -13.076  0.00  0.00    -0.326 OA
ATOM      2  C   UNL     1      38.213 -24.713 -14.788  0.00  0.00    +0.172 C 
ATOM      3  C   UNL     1      39.246 -25.321 -13.842  0.00  0.00    +0.176 C 
ATOM      4  C   UNL     1      37.121 -25.763 -14.852  0.00  0.00    +0.196 C 
ATOM      5  C   UNL     1      37.200 -26.416 -13.481  0.00  0.00    +0.262 C 
ENDROOT
BRANCH   2   6
ATOM      6  O   UNL     1      37.693 -23.515 -14.216  0.00  0.00    -0.379 OA
ATOM      7  H   UNL     1      36.750 -23.439 -14.426  0.00  0.00    +0.211 HD
ENDBRANCH   2   6
BRANCH   4   8
ATOM      8  O   UNL     1      37.453 -26.714 -15.856  0.00  0.00    -0.378 OA
ATOM      9  H   UNL     1      37.907 -27.469 -15.449  0.00  0.00    +0.211 HD
ENDBRANCH   4   8
BRANCH   5  10
ATOM     10  O   UNL     1      36.370 -25.698 -12.574  0.00  0.00    -0.358 OA
ATOM     11  H   UNL     1      36.067 -26.295 -11.872  0.00  0.00    +0.213 HD
ENDBRANCH   5  10
BRANCH   3  12
ATOM     12  C   UNL     1      40.408 -25.983 -14.571  0.00  0.00    +0.169 C 
BRANCH  12  13
ATOM     13  O   UNL     1      40.274 -25.733 -15.960  0.00  0.00    -0.379 OA
ATOM     14  H   UNL     1      39.345 -25.834 -16.218  0.00  0.00    +0.211 HD
ENDBRANCH  12  13
ENDBRANCH   3  12
TORSDOF 5
ENDMDL
MODEL 2
REMARK VINA RESULT:      -5.8      1.265      3.128
REMARK  Name = 445935
REMARK  5 active torsions:
REMARK  status: ('A' for Active; 'I' for Inactive)
REMARK    1  A    between atoms: C_2  and  O_6
REMARK    2  A    between atoms: C_3  and  C_12
REMARK    3  A    between atoms: C_4  and  O_8
REMARK    4  A    between atoms: C_5  and  O_10
REMARK    5  A    between atoms: C_12  and  O_13
REMARK                            x       y       z     vdW  Elec       q    Type
REMARK                         _______ _______ _______ _____ _____    ______ ____
ROOT
ATOM      1  O   UNL     1      36.345 -25.158 -15.493  0.00  0.00    -0.326 OA
ATOM      2  C   UNL     1      38.407 -25.616 -14.380  0.00  0.00    +0.172 C 
ATOM      3  C   UNL     1      37.540 -24.524 -15.001  0.00  0.00    +0.176 C 
ATOM      4  C   UNL     1      37.431 -26.744 -14.113  0.00  0.00    +0.196 C 
ATOM      5  C   UNL     1      36.399 -26.565 -15.216  0.00  0.00    +0.262 C 
ENDROOT
BRANCH   2   6
ATOM      6  O   UNL     1      39.384 -26.042 -15.327  0.00  0.00    -0.379 OA
ATOM      7  H   UNL     1      39.363 -27.008 -15.402  0.00  0.00    +0.211 HD
ENDBRANCH   2   6
BRANCH   4   8
ATOM      8  O   UNL     1      36.819 -26.536 -12.846  0.00  0.00    -0.378 OA
ATOM      9  H   UNL     1      36.860 -25.593 -12.619  0.00  0.00    +0.211 HD
ENDBRANCH   4   8
BRANCH   5  10
ATOM     10  O   UNL     1      36.819 -27.286 -16.370  0.00  0.00    -0.358 OA
ATOM     11  H   UNL     1      36.806 -28.236 -16.179  0.00  0.00    +0.213 HD
ENDBRANCH   5  10
BRANCH   3  12
ATOM     12  C   UNL     1      37.118 -23.455 -14.001  0.00  0.00    +0.169 C 
BRANCH  12  13
ATOM     13  O   UNL     1      37.944 -23.555 -12.853  0.00  0.00    -0.379 OA
ATOM     14  H   UNL     1      38.746 -23.025 -12.986  0.00  0.00    +0.211 HD
ENDBRANCH  12  13
ENDBRANCH   3  12
TORSDOF 5
ENDMDL
MODEL 3
REMARK VINA RESULT:      -5.7      2.487      3.344
REMARK  Name = 445935
REMARK  5 active torsions:
REMARK  status: ('A' for Active; 'I' for Inactive)
REMARK    1  A    between atoms: C_2  and  O_6
REMARK    2  A    between atoms: C_3  and  C_12
REMARK    3  A    between atoms: C_4  and  O_8
REMARK    4  A    between atoms: C_5  and  O_10
REMARK    5  A    between atoms: C_12  and  O_13
REMARK                            x       y       z     vdW  Elec       q    Type
REMARK                         _______ _______ _______ _____ _____    ______ ____
ROOT
ATOM      1  O   UNL     1      36.567 -25.628 -11.591  0.00  0.00    -0.326 OA
ATOM      2  C   UNL     1      37.603 -23.684 -12.510  0.00  0.00    +0.172 C 
ATOM      3  C   UNL     1      37.657 -25.207 -12.431  0.00  0.00    +0.176 C 
ATOM      4  C   UNL     1      36.180 -23.352 -12.107  0.00  0.00    +0.196 C 
ATOM      5  C   UNL     1      35.830 -24.480 -11.148  0.00  0.00    +0.262 C 
ENDROOT
BRANCH   2   6
ATOM      6  O   UNL     1      38.512 -23.126 -11.563  0.00  0.00    -0.379 OA
ATOM      7  H   UNL     1      39.419 -23.355 -11.812  0.00  0.00    +0.211 HD
ENDBRANCH   2   6
BRANCH   4   8
ATOM      8  O   UNL     1      35.345 -23.424 -13.257  0.00  0.00    -0.378 OA
ATOM      9  H   UNL     1      35.311 -22.554 -13.685  0.00  0.00    +0.211 HD
ENDBRANCH   4   8
BRANCH   5  10
ATOM     10  O   UNL     1      36.222 -24.111  -9.831  0.00  0.00    -0.358 OA
ATOM     11  H   UNL     1      36.628 -23.230  -9.849  0.00  0.00    +0.213 HD
ENDBRANCH   5  10
BRANCH   3  12
ATOM     12  C   UNL     1      37.487 -25.883 -13.785  0.00  0.00    +0.169 C 
BRANCH  12  13
ATOM     13  O   UNL     1      36.809 -27.114 -13.596  0.00  0.00    -0.379 OA
ATOM     14  H   UNL     1      36.542 -27.196 -12.667  0.00  0.00    +0.211 HD
ENDBRANCH  12  13
ENDBRANCH   3  12
TORSDOF 5
ENDMDL
MODEL 4
REMARK VINA RESULT:      -5.6      1.803      3.216
REMARK  Name = 445935
REMARK  5 active torsions:
REMARK  status: ('A' for Active; 'I' for Inactive)
REMARK    1  A    between atoms: C_2  and  O_6
REMARK    2  A    between atoms: C_3  and  C_12
REMARK    3  A    between atoms: C_4  and  O_8
REMARK    4  A    between atoms: C_5  and  O_10
REMARK    5  A    between atoms: C_12  and  O_13
REMARK                            x       y       z     vdW  Elec       q    Type
REMARK                         _______ _______ _______ _____ _____    ______ ____
ROOT
ATOM      1  O   UNL     1      39.092 -24.686 -13.426  0.00  0.00    -0.326 OA
ATOM      2  C   UNL     1      36.870 -25.554 -13.524  0.00  0.00    +0.172 C 
ATOM      3  C   UNL     1      37.854 -24.733 -12.693  0.00  0.00    +0.176 C 
ATOM      4  C   UNL     1      37.456 -25.513 -14.921  0.00  0.00    +0.196 C 
ATOM      5  C   UNL     1      38.950 -25.409 -14.657  0.00  0.00    +0.262 C 
ENDROOT
BRANCH   2   6
ATOM      6  O   UNL     1      36.854 -26.899 -13.049  0.00  0.00    -0.379 OA
ATOM      7  H   UNL     1      37.638 -27.366 -13.374  0.00  0.00    +0.211 HD
ENDBRANCH   2   6
BRANCH   4   8
ATOM      8  O   UNL     1      37.002 -24.337 -15.579  0.00  0.00    -0.378 OA
ATOM      9  H   UNL     1      37.731 -23.951 -16.090  0.00  0.00    +0.211 HD
ENDBRANCH   4   8
BRANCH   5  10
ATOM     10  O   UNL     1      39.496 -26.718 -14.534  0.00  0.00    -0.358 OA
ATOM     11  H   UNL     1      38.836 -27.371 -14.814  0.00  0.00    +0.213 HD
ENDBRANCH   5  10
BRANCH   3  12
ATOM     12  C   UNL     1      37.394 -23.299 -12.467  0.00  0.00    +0.169 C 
BRANCH  12  13
ATOM     13  O   UNL     1      38.325 -22.653 -11.614  0.00  0.00    -0.379 OA
ATOM     14  H   UNL     1      38.592 -23.263 -10.909  0.00  0.00    +0.211 HD
ENDBRANCH  12  13
ENDBRANCH   3  12
TORSDOF 5
ENDMDL
MODEL 5
REMARK VINA RESULT:      -5.4      1.706      2.329
REMARK  Name = 445935
REMARK  5 active torsions:
REMARK  status: ('A' for Active; 'I' for Inactive)
REMARK    1  A    between atoms: C_2  and  O_6
REMARK    2  A    between atoms: C_3  and  C_12
REMARK    3  A    between atoms: C_4  and  O_8
REMARK    4  A    between atoms: C_5  and  O_10
REMARK    5  A    between atoms: C_12  and  O_13
REMARK                            x       y       z     vdW  Elec       q    Type
REMARK                         _______ _______ _______ _____ _____    ______ ____
ROOT
ATOM      1  O   UNL     1      37.720 -24.579 -13.515  0.00  0.00    -0.326 OA
ATOM      2  C   UNL     1      35.862 -25.124 -14.911  0.00  0.00    +0.172 C 
ATOM      3  C   UNL     1      36.746 -23.990 -14.397  0.00  0.00    +0.176 C 
ATOM      4  C   UNL     1      36.695 -26.367 -14.676  0.00  0.00    +0.196 C 
ATOM      5  C   UNL     1      37.514 -25.997 -13.449  0.00  0.00    +0.262 C 
ENDROOT
BRANCH   2   6
ATOM      6  O   UNL     1      34.671 -25.190 -14.129  0.00  0.00    -0.379 OA
ATOM      7  H   UNL     1      33.962 -24.706 -14.578  0.00  0.00    +0.211 HD
ENDBRANCH   2   6
BRANCH   4   8
ATOM      8  O   UNL     1      37.559 -26.561 -15.789  0.00  0.00    -0.378 OA
ATOM      9  H   UNL     1      37.434 -27.456 -16.143  0.00  0.00    +0.211 HD
ENDBRANCH   4   8
BRANCH   5  10
ATOM     10  O   UNL     1      36.783 -26.343 -12.278  0.00  0.00    -0.358 OA
ATOM     11  H   UNL     1      35.837 -26.381 -12.487  0.00  0.00    +0.213 HD
ENDBRANCH   5  10
BRANCH   3  12
ATOM     12  C   UNL     1      37.501 -23.270 -15.506  0.00  0.00    +0.169 C 
BRANCH  12  13
ATOM     13  O   UNL     1      38.811 -23.806 -15.586  0.00  0.00    -0.379 OA
ATOM     14  H   UNL     1      39.014 -24.284 -14.767  0.00  0.00    +0.211 HD
ENDBRANCH  12  13
ENDBRANCH   3  12
TORSDOF 5
ENDMDL
MODEL 6
REMARK VINA RESULT:      -5.4      1.816      2.812
REMARK  Name = 445935
REMARK  5 active torsions:
REMARK  status: ('A' for Active; 'I' for Inactive)
REMARK    1  A    between atoms: C_2  and  O_6
REMARK    2  A    between atoms: C_3  and  C_12
REMARK    3  A    between atoms: C_4  and  O_8
REMARK    4  A    between atoms: C_5  and  O_10
REMARK    5  A    between atoms: C_12  and  O_13
REMARK                            x       y       z     vdW  Elec       q    Type
REMARK                         _______ _______ _______ _____ _____    ______ ____
ROOT
ATOM      1  O   UNL     1      38.656 -24.442 -13.485  0.00  0.00    -0.326 OA
ATOM      2  C   UNL     1      36.277 -24.490 -13.296  0.00  0.00    +0.172 C 
ATOM      3  C   UNL     1      37.453 -24.557 -14.267  0.00  0.00    +0.176 C 
ATOM      4  C   UNL     1      36.895 -24.838 -11.957  0.00  0.00    +0.196 C 
ATOM      5  C   UNL     1      38.317 -24.318 -12.097  0.00  0.00    +0.262 C 
ENDROOT
BRANCH   2   6
ATOM      6  O   UNL     1      35.767 -23.159 -13.258  0.00  0.00    -0.379 OA
ATOM      7  H   UNL     1      35.760 -22.790 -14.154  0.00  0.00    +0.211 HD
ENDBRANCH   2   6
BRANCH   4   8
ATOM      8  O   UNL     1      36.913 -26.252 -11.809  0.00  0.00    -0.378 OA
ATOM      9  H   UNL     1      36.800 -26.669 -12.677  0.00  0.00    +0.211 HD
ENDBRANCH   4   8
BRANCH   5  10
ATOM     10  O   UNL     1      38.359 -22.954 -11.692  0.00  0.00    -0.358 OA
ATOM     11  H   UNL     1      39.010 -22.477 -12.229  0.00  0.00    +0.213 HD
ENDBRANCH   5  10
BRANCH   3  12
ATOM     12  C   UNL     1      37.523 -25.871 -15.033  0.00  0.00    +0.169 C 
BRANCH  12  13
ATOM     13  O   UNL     1      38.560 -26.664 -14.482  0.00  0.00    -0.379 OA
ATOM     14  H   UNL     1      38.825 -27.341 -15.125  0.00  0.00    +0.211 HD
ENDBRANCH  12  13
ENDBRANCH   3  12
TORSDOF 5
ENDMDL
MODEL 7
REMARK VINA RESULT:      -5.3      1.590      3.504
REMARK  Name = 445935
REMARK  5 active torsions:
REMARK  status: ('A' for Active; 'I' for Inactive)
REMARK    1  A    between atoms: C_2  and  O_6
REMARK    2  A    between atoms: C_3  and  C_12
REMARK    3  A    between atoms: C_4  and  O_8
REMARK    4  A    between atoms: C_5  and  O_10
REMARK    5  A    between atoms: C_12  and  O_13
REMARK                            x       y       z     vdW  Elec       q    Type
REMARK                         _______ _______ _______ _____ _____    ______ ____
ROOT
ATOM      1  O   UNL     1      37.715 -23.357 -13.637  0.00  0.00    -0.326 OA
ATOM      2  C   UNL     1      37.985 -25.693 -13.228  0.00  0.00    +0.172 C 
ATOM      3  C   UNL     1      37.910 -24.313 -12.579  0.00  0.00    +0.176 C 
ATOM      4  C   UNL     1      37.332 -25.492 -14.580  0.00  0.00    +0.196 C 
ATOM      5  C   UNL     1      37.654 -24.039 -14.898  0.00  0.00    +0.262 C 
ENDROOT
BRANCH   2   6
ATOM      6  O   UNL     1      39.351 -26.061 -13.405  0.00  0.00    -0.379 OA
ATOM      7  H   UNL     1      39.601 -26.713 -12.733  0.00  0.00    +0.211 HD
ENDBRANCH   2   6
BRANCH   4   8
ATOM      8  O   UNL     1      35.925 -25.653 -14.443  0.00  0.00    -0.378 OA
ATOM      9  H   UNL     1      35.538 -24.831 -14.103  0.00  0.00    +0.211 HD
ENDBRANCH   4   8
BRANCH   5  10
ATOM     10  O   UNL     1      38.909 -23.974 -15.564  0.00  0.00    -0.358 OA
ATOM     11  H   UNL     1      39.610 -23.800 -14.917  0.00  0.00    +0.213 HD
ENDBRANCH   5  10
BRANCH   3  12
ATOM     12  C   UNL     1      36.747 -24.172 -11.607  0.00  0.00    +0.169 C 
BRANCH  12  13
ATOM     13  O   UNL     1      36.187 -25.454 -11.379  0.00  0.00    -0.379 OA
ATOM     14  H   UNL     1      36.301 -26.001 -12.172  0.00  0.00    +0.211 HD
ENDBRANCH  12  13
ENDBRANCH   3  12
TORSDOF 5
ENDMDL
MODEL 8
REMARK VINA RESULT:      -5.2      1.474      3.017
REMARK  Name = 445935
REMARK  5 active torsions:
REMARK  status: ('A' for Active; 'I' for Inactive)
REMARK    1  A    between atoms: C_2  and  O_6
REMARK    2  A    between atoms: C_3  and  C_12
REMARK    3  A    between atoms: C_4  and  O_8
REMARK    4  A    between atoms: C_5  and  O_10
REMARK    5  A    between atoms: C_12  and  O_13
REMARK                            x       y       z     vdW  Elec       q    Type
REMARK                         _______ _______ _______ _____ _____    ______ ____
ROOT
ATOM      1  O   UNL     1      38.466 -24.427 -14.590  0.00  0.00    -0.326 OA
ATOM      2  C   UNL     1      36.555 -25.709 -13.959  0.00  0.00    +0.172 C 
ATOM      3  C   UNL     1      37.073 -24.303 -14.249  0.00  0.00    +0.176 C 
ATOM      4  C   UNL     1      37.565 -26.614 -14.635  0.00  0.00    +0.196 C 
ATOM      5  C   UNL     1      38.852 -25.808 -14.544  0.00  0.00    +0.262 C 
ENDROOT
BRANCH   2   6
ATOM      6  O   UNL     1      36.569 -25.941 -12.552  0.00  0.00    -0.379 OA
ATOM      7  H   UNL     1      36.497 -26.891 -12.380  0.00  0.00    +0.211 HD
ENDBRANCH   2   6
BRANCH   4   8
ATOM      8  O   UNL     1      37.199 -26.779 -15.999  0.00  0.00    -0.378 OA
ATOM      9  H   UNL     1      37.596 -26.070 -16.529  0.00  0.00    +0.211 HD
ENDBRANCH   4   8
BRANCH   5  10
ATOM     10  O   UNL     1      39.503 -26.104 -13.314  0.00  0.00    -0.358 OA
ATOM     11  H   UNL     1      40.032 -26.910 -13.414  0.00  0.00    +0.213 HD
ENDBRANCH   5  10
BRANCH   3  12
ATOM     12  C   UNL     1      36.367 -23.635 -15.421  0.00  0.00    +0.169 C 
BRANCH  12  13
ATOM     13  O   UNL     1      35.295 -24.463 -15.837  0.00  0.00    -0.379 OA
ATOM     14  H   UNL     1      35.079 -24.269 -16.763  0.00  0.00    +0.211 HD
ENDBRANCH  12  13
ENDBRANCH   3  12
TORSDOF 5
ENDMDL
MODEL 9
REMARK VINA RESULT:      -5.2      1.262      2.287
REMARK  Name = 445935
REMARK  5 active torsions:
REMARK  status: ('A' for Active; 'I' for Inactive)
REMARK    1  A    between atoms: C_2  and  O_6
REMARK    2  A    between atoms: C_3  and  C_12
REMARK    3  A    between atoms: C_4  and  O_8
REMARK    4  A    between atoms: C_5  and  O_10
REMARK    5  A    between atoms: C_12  and  O_13
REMARK                            x       y       z     vdW  Elec       q    Type
REMARK                         _______ _______ _______ _____ _____    ______ ____
ROOT
ATOM      1  O   UNL     1      38.041 -26.149 -15.135  0.00  0.00    -0.326 OA
ATOM      2  C   UNL     1      37.924 -25.392 -12.874  0.00  0.00    +0.172 C 
ATOM      3  C   UNL     1      38.747 -26.192 -13.881  0.00  0.00    +0.176 C 
ATOM      4  C   UNL     1      37.039 -24.520 -13.743  0.00  0.00    +0.196 C 
ATOM      5  C   UNL     1      36.844 -25.372 -14.987  0.00  0.00    +0.262 C 
ENDROOT
BRANCH   2   6
ATOM      6  O   UNL     1      37.115 -26.282 -12.107  0.00  0.00    -0.379 OA
ATOM      7  H   UNL     1      36.238 -25.892 -11.979  0.00  0.00    +0.211 HD
ENDBRANCH   2   6
BRANCH   4   8
ATOM      8  O   UNL     1      37.747 -23.333 -14.080  0.00  0.00    -0.378 OA
ATOM      9  H   UNL     1      37.333 -22.575 -13.639  0.00  0.00    +0.211 HD
ENDBRANCH   4   8
BRANCH   5  10
ATOM     10  O   UNL     1      35.717 -26.221 -14.801  0.00  0.00    -0.358 OA
ATOM     11  H   UNL     1      35.293 -26.388 -15.657  0.00  0.00    +0.213 HD
ENDBRANCH   5  10
BRANCH   3  12
ATOM     12  C   UNL     1      40.137 -25.614 -14.111  0.00  0.00    +0.169 C 
BRANCH  12  13
ATOM     13  O   UNL     1      40.972 -26.635 -14.630  0.00  0.00    -0.379 OA
ATOM     14  H   UNL     1      40.448 -27.438 -14.777  0.00  0.00    +0.211 HD
ENDBRANCH  12  13
ENDBRANCH   3  12
TORSDOF 5
ENDMDL
