MODEL 1
REMARK VINA RESULT:     -10.7      0.000      0.000
REMARK  Name = 25210273
REMARK  7 active torsions:
REMARK  status: ('A' for Active; 'I' for Inactive)
REMARK    1  A    between atoms: C_5  and  C_17
REMARK    2  A    between atoms: C_9  and  C_32
REMARK    3  A    between atoms: C_15  and  O_21
REMARK    4  A    between atoms: O_21  and  C_22
REMARK    5  A    between atoms: C_22  and  C_23
REMARK    6  A    between atoms: C_23  and  N_24
REMARK    7  A    between atoms: N_31  and  C_34
REMARK                            x       y       z     vdW  Elec       q    Type
REMARK                         _______ _______ _______ _____ _____    ______ ____
ROOT
ATOM      1  S   UNL     1      34.828 -17.524 -24.643  0.00  0.00    -0.054 S 
ATOM      2  N   UNL     1      32.757 -13.685 -25.171  0.00  0.00    -0.332 NA
ATOM      3  N   UNL     1      33.749 -15.647 -26.196  0.00  0.00    -0.326 NA
ATOM      4  N   UNL     1      32.786 -13.958 -27.493  0.00  0.00    -0.283 N 
ATOM      5  C   UNL     1      33.060 -14.137 -23.936  0.00  0.00    +0.134 C 
ATOM      6  C   UNL     1      33.720 -15.360 -23.775  0.00  0.00    +0.135 C 
ATOM      7  C   UNL     1      34.028 -16.049 -24.941  0.00  0.00    +0.162 C 
ATOM      8  C   UNL     1      34.164 -16.085 -22.623  0.00  0.00    -0.001 C 
ATOM      9  C   UNL     1      34.780 -17.272 -22.952  0.00  0.00    +0.081 C 
ATOM     10  C   UNL     1      33.117 -14.459 -26.214  0.00  0.00    +0.196 C 
ATOM     11  H   UNL     1      32.321 -13.094 -27.579  0.00  0.00    +0.156 HD
ATOM     12  H   UNL     1      33.019 -14.473 -28.300  0.00  0.00    +0.156 HD
ENDROOT
BRANCH   5  17
ATOM     13 CL   UNL     1      31.511 -10.651 -19.349  0.00  0.00    -0.079 Cl
ATOM     14 CL   UNL     1      32.259 -15.579 -21.329  0.00  0.00    -0.082 Cl
ATOM     15  C   UNL     1      32.339 -11.097 -21.902  0.00  0.00    +0.149 C 
ATOM     16  C   UNL     1      32.698 -11.926 -22.964  0.00  0.00    +0.041 C 
ATOM     17  C   UNL     1      32.679 -13.312 -22.805  0.00  0.00    +0.041 C 
ATOM     18  C   UNL     1      31.960 -11.653 -20.680  0.00  0.00    +0.092 C 
ATOM     19  C   UNL     1      32.300 -13.868 -21.583  0.00  0.00    +0.061 C 
ATOM     20  C   UNL     1      31.941 -13.039 -20.521  0.00  0.00    +0.026 C 
BRANCH  15  21
ATOM     21  O   UNL     1      32.366  -9.740 -22.086  0.00  0.00    -0.477 OA
BRANCH  21  22
ATOM     22  C   UNL     1      32.975  -9.267 -23.281  0.00  0.00    +0.183 C 
BRANCH  22  23
ATOM     23  C   UNL     1      33.383  -7.817 -23.080  0.00  0.00    -0.029 C 
BRANCH  23  24
ATOM     24  N   UNL     1      32.248  -6.930 -23.292  0.00  0.00    +0.389 N 
ATOM     25  C   UNL     1      32.006  -6.049 -22.149  0.00  0.00    -0.077 C 
ATOM     26  C   UNL     1      32.446  -6.032 -24.429  0.00  0.00    -0.077 C 
ATOM     27  C   UNL     1      31.079  -4.989 -22.726  0.00  0.00    -0.025 C 
ATOM     28  C   UNL     1      31.366  -4.980 -24.224  0.00  0.00    -0.025 C 
ATOM     29  H   UNL     1      31.465  -7.564 -23.448  0.00  0.00    -0.080 HD
ENDBRANCH  23  24
ENDBRANCH  22  23
ENDBRANCH  21  22
ENDBRANCH  15  21
ENDBRANCH   5  17
BRANCH   9  32
ATOM     30  O   UNL     1      36.586 -18.310 -21.877  0.00  0.00    -0.270 OA
ATOM     31  N   UNL     1      34.471 -19.157 -21.444  0.00  0.00    -0.300 N 
ATOM     32  C   UNL     1      35.347 -18.254 -22.086  0.00  0.00    +0.252 C 
ATOM     33  H   UNL     1      33.509 -19.077 -21.637  0.00  0.00    +0.150 HD
BRANCH  31  34
ATOM     34  C   UNL     1      34.889 -20.190 -20.524  0.00  0.00    +0.090 C 
ATOM     35  C   UNL     1      33.702 -20.916 -19.928  0.00  0.00    +0.023 C 
ENDBRANCH  31  34
ENDBRANCH   9  32
TORSDOF 7
ENDMDL
MODEL 2
REMARK VINA RESULT:     -10.6      4.176     10.101
REMARK  Name = 25210273
REMARK  7 active torsions:
REMARK  status: ('A' for Active; 'I' for Inactive)
REMARK    1  A    between atoms: C_5  and  C_17
REMARK    2  A    between atoms: C_9  and  C_32
REMARK    3  A    between atoms: C_15  and  O_21
REMARK    4  A    between atoms: O_21  and  C_22
REMARK    5  A    between atoms: C_22  and  C_23
REMARK    6  A    between atoms: C_23  and  N_24
REMARK    7  A    between atoms: N_31  and  C_34
REMARK                            x       y       z     vdW  Elec       q    Type
REMARK                         _______ _______ _______ _____ _____    ______ ____
ROOT
ATOM      1  S   UNL     1      30.957  -5.534 -21.698  0.00  0.00    -0.054 S 
ATOM      2  N   UNL     1      32.825  -9.489 -21.275  0.00  0.00    -0.332 NA
ATOM      3  N   UNL     1      31.569  -7.685 -20.249  0.00  0.00    -0.326 NA
ATOM      4  N   UNL     1      32.143  -9.602 -19.041  0.00  0.00    -0.283 N 
ATOM      5  C   UNL     1      32.877  -8.827 -22.451  0.00  0.00    +0.134 C 
ATOM      6  C   UNL     1      32.281  -7.568 -22.578  0.00  0.00    +0.135 C 
ATOM      7  C   UNL     1      31.652  -7.069 -21.444  0.00  0.00    +0.162 C 
ATOM      8  C   UNL     1      32.173  -6.646 -23.667  0.00  0.00    -0.001 C 
ATOM      9  C   UNL     1      31.482  -5.505 -23.326  0.00  0.00    +0.081 C 
ATOM     10  C   UNL     1      32.180  -8.883 -20.258  0.00  0.00    +0.196 C 
ATOM     11  H   UNL     1      32.570 -10.487 -18.978  0.00  0.00    +0.156 HD
ATOM     12  H   UNL     1      31.688  -9.218 -18.256  0.00  0.00    +0.156 HD
ENDROOT
BRANCH   5  17
ATOM     13 CL   UNL     1      35.648 -11.549 -26.979  0.00  0.00    -0.079 Cl
ATOM     14 CL   UNL     1      35.289  -7.342 -23.671  0.00  0.00    -0.082 Cl
ATOM     15  C   UNL     1      33.740 -11.357 -25.049  0.00  0.00    +0.149 C 
ATOM     16  C   UNL     1      33.104 -10.708 -23.992  0.00  0.00    +0.041 C 
ATOM     17  C   UNL     1      33.569  -9.468 -23.554  0.00  0.00    +0.041 C 
ATOM     18  C   UNL     1      34.841 -10.767 -25.669  0.00  0.00    +0.092 C 
ATOM     19  C   UNL     1      34.670  -8.877 -24.174  0.00  0.00    +0.061 C 
ATOM     20  C   UNL     1      35.306  -9.527 -25.231  0.00  0.00    +0.026 C 
BRANCH  15  21
ATOM     21  O   UNL     1      33.262 -12.574 -25.459  0.00  0.00    -0.477 OA
BRANCH  21  22
ATOM     22  C   UNL     1      32.909 -13.501 -24.440  0.00  0.00    +0.183 C 
BRANCH  22  23
ATOM     23  C   UNL     1      34.179 -14.138 -23.899  0.00  0.00    -0.029 C 
BRANCH  23  24
ATOM     24  N   UNL     1      34.135 -14.217 -22.446  0.00  0.00    +0.389 N 
ATOM     25  C   UNL     1      32.774 -14.093 -21.921  0.00  0.00    -0.077 C 
ATOM     26  C   UNL     1      34.621 -15.500 -21.941  0.00  0.00    -0.077 C 
ATOM     27  C   UNL     1      32.916 -14.586 -20.489  0.00  0.00    -0.025 C 
ATOM     28  C   UNL     1      34.131 -15.507 -20.501  0.00  0.00    -0.025 C 
ATOM     29  H   UNL     1      34.726 -13.444 -22.139  0.00  0.00    -0.080 HD
ENDBRANCH  23  24
ENDBRANCH  22  23
ENDBRANCH  21  22
ENDBRANCH  15  21
ENDBRANCH   5  17
BRANCH   9  32
ATOM     30  O   UNL     1      30.425  -3.449 -23.719  0.00  0.00    -0.270 OA
ATOM     31  N   UNL     1      31.756  -4.295 -25.419  0.00  0.00    -0.300 N 
ATOM     32  C   UNL     1      31.174  -4.371 -24.135  0.00  0.00    +0.252 C 
ATOM     33  H   UNL     1      32.335  -5.038 -25.704  0.00  0.00    +0.150 HD
BRANCH  31  34
ATOM     34  C   UNL     1      31.560  -3.202 -26.345  0.00  0.00    +0.090 C 
ATOM     35  C   UNL     1      32.292  -3.441 -27.649  0.00  0.00    +0.023 C 
ENDBRANCH  31  34
ENDBRANCH   9  32
TORSDOF 7
ENDMDL
MODEL 3
REMARK VINA RESULT:     -10.2      4.506     11.252
REMARK  Name = 25210273
REMARK  7 active torsions:
REMARK  status: ('A' for Active; 'I' for Inactive)
REMARK    1  A    between atoms: C_5  and  C_17
REMARK    2  A    between atoms: C_9  and  C_32
REMARK    3  A    between atoms: C_15  and  O_21
REMARK    4  A    between atoms: O_21  and  C_22
REMARK    5  A    between atoms: C_22  and  C_23
REMARK    6  A    between atoms: C_23  and  N_24
REMARK    7  A    between atoms: N_31  and  C_34
REMARK                            x       y       z     vdW  Elec       q    Type
REMARK                         _______ _______ _______ _____ _____    ______ ____
ROOT
ATOM      1  S   UNL     1      34.174 -15.812 -23.259  0.00  0.00    -0.054 S 
ATOM      2  N   UNL     1      34.899 -20.146 -23.304  0.00  0.00    -0.332 NA
ATOM      3  N   UNL     1      34.565 -18.101 -24.565  0.00  0.00    -0.326 NA
ATOM      4  N   UNL     1      34.911 -20.146 -25.642  0.00  0.00    -0.283 N 
ATOM      5  C   UNL     1      34.783 -19.481 -22.134  0.00  0.00    +0.134 C 
ATOM      6  C   UNL     1      34.551 -18.102 -22.128  0.00  0.00    +0.135 C 
ATOM      7  C   UNL     1      34.455 -17.489 -23.370  0.00  0.00    +0.162 C 
ATOM      8  C   UNL     1      34.386 -17.147 -21.075  0.00  0.00    -0.001 C 
ATOM      9  C   UNL     1      34.174 -15.871 -21.549  0.00  0.00    +0.081 C 
ATOM     10  C   UNL     1      34.784 -19.422 -24.436  0.00  0.00    +0.196 C 
ATOM     11  H   UNL     1      35.074 -21.117 -25.620  0.00  0.00    +0.156 HD
ATOM     12  H   UNL     1      34.838 -19.680 -26.507  0.00  0.00    +0.156 HD
ENDROOT
BRANCH   5  17
ATOM     13 CL   UNL     1      35.170 -22.665 -17.104  0.00  0.00    -0.079 Cl
ATOM     14 CL   UNL     1      37.573 -19.649 -20.831  0.00  0.00    -0.082 Cl
ATOM     15  C   UNL     1      33.832 -21.610 -19.225  0.00  0.00    +0.149 C 
ATOM     16  C   UNL     1      33.759 -20.862 -20.400  0.00  0.00    +0.041 C 
ATOM     17  C   UNL     1      34.904 -20.250 -20.910  0.00  0.00    +0.041 C 
ATOM     18  C   UNL     1      35.051 -21.746 -18.560  0.00  0.00    +0.092 C 
ATOM     19  C   UNL     1      36.123 -20.386 -20.244  0.00  0.00    +0.061 C 
ATOM     20  C   UNL     1      36.195 -21.134 -19.070  0.00  0.00    +0.026 C 
BRANCH  15  21
ATOM     21  O   UNL     1      32.692 -22.200 -18.746  0.00  0.00    -0.477 OA
BRANCH  21  22
ATOM     22  C   UNL     1      32.826 -22.996 -17.575  0.00  0.00    +0.183 C 
BRANCH  22  23
ATOM     23  C   UNL     1      31.573 -22.833 -16.730  0.00  0.00    -0.029 C 
BRANCH  23  24
ATOM     24  N   UNL     1      31.403 -23.973 -15.841  0.00  0.00    +0.389 N 
ATOM     25  C   UNL     1      31.715 -23.648 -14.448  0.00  0.00    -0.077 C 
ATOM     26  C   UNL     1      30.025 -24.462 -15.816  0.00  0.00    -0.077 C 
ATOM     27  C   UNL     1      31.108 -24.813 -13.681  0.00  0.00    -0.025 C 
ATOM     28  C   UNL     1      30.001 -25.350 -14.581  0.00  0.00    -0.025 C 
ATOM     29  H   UNL     1      32.043 -24.675 -16.213  0.00  0.00    -0.080 HD
ENDBRANCH  23  24
ENDBRANCH  22  23
ENDBRANCH  21  22
ENDBRANCH  15  21
ENDBRANCH   5  17
BRANCH   9  32
ATOM     30  O   UNL     1      34.903 -14.118 -20.173  0.00  0.00    -0.270 OA
ATOM     31  N   UNL     1      32.682 -14.085 -20.837  0.00  0.00    -0.300 N 
ATOM     32  C   UNL     1      33.969 -14.666 -20.812  0.00  0.00    +0.252 C 
ATOM     33  H   UNL     1      31.981 -14.548 -21.350  0.00  0.00    +0.150 HD
BRANCH  31  34
ATOM     34  C   UNL     1      32.323 -12.858 -20.163  0.00  0.00    +0.090 C 
ATOM     35  C   UNL     1      31.576 -11.917 -21.084  0.00  0.00    +0.023 C 
ENDBRANCH  31  34
ENDBRANCH   9  32
TORSDOF 7
ENDMDL
MODEL 4
REMARK VINA RESULT:      -9.3      2.963      3.936
REMARK  Name = 25210273
REMARK  7 active torsions:
REMARK  status: ('A' for Active; 'I' for Inactive)
REMARK    1  A    between atoms: C_5  and  C_17
REMARK    2  A    between atoms: C_9  and  C_32
REMARK    3  A    between atoms: C_15  and  O_21
REMARK    4  A    between atoms: O_21  and  C_22
REMARK    5  A    between atoms: C_22  and  C_23
REMARK    6  A    between atoms: C_23  and  N_24
REMARK    7  A    between atoms: N_31  and  C_34
REMARK                            x       y       z     vdW  Elec       q    Type
REMARK                         _______ _______ _______ _____ _____    ______ ____
ROOT
ATOM      1  S   UNL     1      33.013 -15.744 -20.806  0.00  0.00    -0.054 S 
ATOM      2  N   UNL     1      32.042 -11.730 -22.305  0.00  0.00    -0.332 NA
ATOM      3  N   UNL     1      31.594 -13.491 -20.699  0.00  0.00    -0.326 NA
ATOM      4  N   UNL     1      30.389 -11.489 -20.669  0.00  0.00    -0.283 N 
ATOM      5  C   UNL     1      33.013 -12.464 -22.889  0.00  0.00    +0.134 C 
ATOM      6  C   UNL     1      33.317 -13.741 -22.406  0.00  0.00    +0.135 C 
ATOM      7  C   UNL     1      32.571 -14.181 -21.320  0.00  0.00    +0.162 C 
ATOM      8  C   UNL     1      34.268 -14.734 -22.806  0.00  0.00    -0.001 C 
ATOM      9  C   UNL     1      34.209 -15.866 -22.024  0.00  0.00    +0.081 C 
ATOM     10  C   UNL     1      31.399 -12.283 -21.257  0.00  0.00    +0.196 C 
ATOM     11  H   UNL     1      30.195 -10.593 -21.027  0.00  0.00    +0.156 HD
ATOM     12  H   UNL     1      29.879 -11.832 -19.899  0.00  0.00    +0.156 HD
ENDROOT
BRANCH   5  17
ATOM     13 CL   UNL     1      35.910  -9.970 -27.468  0.00  0.00    -0.079 Cl
ATOM     14 CL   UNL     1      33.119 -14.104 -25.498  0.00  0.00    -0.082 Cl
ATOM     15  C   UNL     1      34.971 -10.023 -24.916  0.00  0.00    +0.149 C 
ATOM     16  C   UNL     1      34.290 -10.621 -23.856  0.00  0.00    +0.041 C 
ATOM     17  C   UNL     1      33.712 -11.880 -24.018  0.00  0.00    +0.041 C 
ATOM     18  C   UNL     1      35.075 -10.686 -26.139  0.00  0.00    +0.092 C 
ATOM     19  C   UNL     1      33.816 -12.542 -25.241  0.00  0.00    +0.061 C 
ATOM     20  C   UNL     1      34.497 -11.945 -26.302  0.00  0.00    +0.026 C 
BRANCH  15  21
ATOM     21  O   UNL     1      35.529  -8.786 -24.729  0.00  0.00    -0.477 OA
BRANCH  21  22
ATOM     22  C   UNL     1      34.957  -7.972 -23.713  0.00  0.00    +0.183 C 
BRANCH  22  23
ATOM     23  C   UNL     1      34.025  -6.963 -24.364  0.00  0.00    -0.029 C 
BRANCH  23  24
ATOM     24  N   UNL     1      32.760  -6.896 -23.647  0.00  0.00    +0.389 N 
ATOM     25  C   UNL     1      32.923  -7.088 -22.206  0.00  0.00    -0.077 C 
ATOM     26  C   UNL     1      32.107  -5.594 -23.785  0.00  0.00    -0.077 C 
ATOM     27  C   UNL     1      31.597  -6.599 -21.644  0.00  0.00    -0.025 C 
ATOM     28  C   UNL     1      31.059  -5.621 -22.683  0.00  0.00    -0.025 C 
ATOM     29  H   UNL     1      32.200  -7.641 -24.063  0.00  0.00    -0.080 HD
ENDBRANCH  23  24
ENDBRANCH  22  23
ENDBRANCH  21  22
ENDBRANCH  15  21
ENDBRANCH   5  17
BRANCH   9  32
ATOM     30  O   UNL     1      35.360 -17.519 -23.224  0.00  0.00    -0.270 OA
ATOM     31  N   UNL     1      35.363 -17.698 -20.912  0.00  0.00    -0.300 N 
ATOM     32  C   UNL     1      34.990 -17.056 -22.114  0.00  0.00    +0.252 C 
ATOM     33  H   UNL     1      35.052 -17.301 -20.066  0.00  0.00    +0.150 HD
BRANCH  31  34
ATOM     34  C   UNL     1      36.170 -18.894 -20.838  0.00  0.00    +0.090 C 
ATOM     35  C   UNL     1      35.324 -20.116 -20.549  0.00  0.00    +0.023 C 
ENDBRANCH  31  34
ENDBRANCH   9  32
TORSDOF 7
ENDMDL
MODEL 5
REMARK VINA RESULT:      -9.1      3.959     10.168
REMARK  Name = 25210273
REMARK  7 active torsions:
REMARK  status: ('A' for Active; 'I' for Inactive)
REMARK    1  A    between atoms: C_5  and  C_17
REMARK    2  A    between atoms: C_9  and  C_32
REMARK    3  A    between atoms: C_15  and  O_21
REMARK    4  A    between atoms: O_21  and  C_22
REMARK    5  A    between atoms: C_22  and  C_23
REMARK    6  A    between atoms: C_23  and  N_24
REMARK    7  A    between atoms: N_31  and  C_34
REMARK                            x       y       z     vdW  Elec       q    Type
REMARK                         _______ _______ _______ _____ _____    ______ ____
ROOT
ATOM      1  S   UNL     1      31.187  -6.569 -21.645  0.00  0.00    -0.054 S 
ATOM      2  N   UNL     1      32.693 -10.689 -21.886  0.00  0.00    -0.332 NA
ATOM      3  N   UNL     1      31.513  -9.001 -20.607  0.00  0.00    -0.326 NA
ATOM      4  N   UNL     1      31.839 -11.155 -19.760  0.00  0.00    -0.283 N 
ATOM      5  C   UNL     1      32.886  -9.827 -22.907  0.00  0.00    +0.134 C 
ATOM      6  C   UNL     1      32.405  -8.516 -22.823  0.00  0.00    +0.135 C 
ATOM      7  C   UNL     1      31.735  -8.182 -21.653  0.00  0.00    +0.162 C 
ATOM      8  C   UNL     1      32.454  -7.401 -23.718  0.00  0.00    -0.001 C 
ATOM      9  C   UNL     1      31.832  -6.284 -23.203  0.00  0.00    +0.081 C 
ATOM     10  C   UNL     1      32.025 -10.228 -20.810  0.00  0.00    +0.196 C 
ATOM     11  H   UNL     1      32.188 -12.072 -19.845  0.00  0.00    +0.156 HD
ATOM     12  H   UNL     1      31.359 -10.884 -18.944  0.00  0.00    +0.156 HD
ENDROOT
BRANCH   5  17
ATOM     13 CL   UNL     1      35.769 -11.907 -27.698  0.00  0.00    -0.079 Cl
ATOM     14 CL   UNL     1      35.304  -8.174 -23.875  0.00  0.00    -0.082 Cl
ATOM     15  C   UNL     1      33.824 -11.987 -25.798  0.00  0.00    +0.149 C 
ATOM     16  C   UNL     1      33.162 -11.487 -24.677  0.00  0.00    +0.041 C 
ATOM     17  C   UNL     1      33.605 -10.312 -24.071  0.00  0.00    +0.041 C 
ATOM     18  C   UNL     1      34.930 -11.311 -26.313  0.00  0.00    +0.092 C 
ATOM     19  C   UNL     1      34.711  -9.635 -24.586  0.00  0.00    +0.061 C 
ATOM     20  C   UNL     1      35.373 -10.135 -25.707  0.00  0.00    +0.026 C 
BRANCH  15  21
ATOM     21  O   UNL     1      33.367 -13.143 -26.373  0.00  0.00    -0.477 OA
BRANCH  21  22
ATOM     22  C   UNL     1      32.882 -14.149 -25.493  0.00  0.00    +0.183 C 
BRANCH  22  23
ATOM     23  C   UNL     1      33.490 -15.483 -25.895  0.00  0.00    -0.029 C 
BRANCH  23  24
ATOM     24  N   UNL     1      33.805 -16.279 -24.718  0.00  0.00    +0.389 N 
ATOM     25  C   UNL     1      34.296 -17.614 -25.061  0.00  0.00    -0.077 C 
ATOM     26  C   UNL     1      34.865 -15.682 -23.906  0.00  0.00    -0.077 C 
ATOM     27  C   UNL     1      34.914 -18.096 -23.757  0.00  0.00    -0.025 C 
ATOM     28  C   UNL     1      35.284 -16.827 -22.997  0.00  0.00    -0.025 C 
ATOM     29  H   UNL     1      32.923 -16.325 -24.207  0.00  0.00    -0.080 HD
ENDBRANCH  23  24
ENDBRANCH  22  23
ENDBRANCH  21  22
ENDBRANCH  15  21
ENDBRANCH   5  17
BRANCH   9  32
ATOM     30  O   UNL     1      32.305  -4.669 -24.836  0.00  0.00    -0.270 OA
ATOM     31  N   UNL     1      30.778  -4.090 -23.189  0.00  0.00    -0.300 N 
ATOM     32  C   UNL     1      31.679  -4.995 -23.794  0.00  0.00    +0.252 C 
ATOM     33  H   UNL     1      30.310  -4.387 -22.376  0.00  0.00    +0.150 HD
BRANCH  31  34
ATOM     34  C   UNL     1      30.497  -2.761 -23.681  0.00  0.00    +0.090 C 
ATOM     35  C   UNL     1      30.273  -1.786 -22.545  0.00  0.00    +0.023 C 
ENDBRANCH  31  34
ENDBRANCH   9  32
TORSDOF 7
ENDMDL
MODEL 6
REMARK VINA RESULT:      -9.0      3.492      8.937
REMARK  Name = 25210273
REMARK  7 active torsions:
REMARK  status: ('A' for Active; 'I' for Inactive)
REMARK    1  A    between atoms: C_5  and  C_17
REMARK    2  A    between atoms: C_9  and  C_32
REMARK    3  A    between atoms: C_15  and  O_21
REMARK    4  A    between atoms: O_21  and  C_22
REMARK    5  A    between atoms: C_22  and  C_23
REMARK    6  A    between atoms: C_23  and  N_24
REMARK    7  A    between atoms: N_31  and  C_34
REMARK                            x       y       z     vdW  Elec       q    Type
REMARK                         _______ _______ _______ _____ _____    ______ ____
ROOT
ATOM      1  S   UNL     1      32.556  -9.635 -22.768  0.00  0.00    -0.054 S 
ATOM      2  N   UNL     1      34.870 -11.965 -25.688  0.00  0.00    -0.332 NA
ATOM      3  N   UNL     1      34.242  -9.787 -24.826  0.00  0.00    -0.326 NA
ATOM      4  N   UNL     1      35.713  -9.997 -26.629  0.00  0.00    -0.283 N 
ATOM      5  C   UNL     1      34.096 -12.586 -24.772  0.00  0.00    +0.134 C 
ATOM      6  C   UNL     1      33.362 -11.838 -23.846  0.00  0.00    +0.135 C 
ATOM      7  C   UNL     1      33.485 -10.458 -23.936  0.00  0.00    +0.162 C 
ATOM      8  C   UNL     1      32.476 -12.202 -22.783  0.00  0.00    -0.001 C 
ATOM      9  C   UNL     1      31.970 -11.106 -22.119  0.00  0.00    +0.081 C 
ATOM     10  C   UNL     1      34.894 -10.617 -25.659  0.00  0.00    +0.196 C 
ATOM     11  H   UNL     1      36.221 -10.547 -27.270  0.00  0.00    +0.156 HD
ATOM     12  H   UNL     1      35.778  -9.015 -26.664  0.00  0.00    +0.156 HD
ENDROOT
BRANCH   5  17
ATOM     13 CL   UNL     1      34.017 -18.551 -24.772  0.00  0.00    -0.079 Cl
ATOM     14 CL   UNL     1      32.422 -13.933 -26.985  0.00  0.00    -0.082 Cl
ATOM     15  C   UNL     1      34.772 -16.123 -23.806  0.00  0.00    +0.149 C 
ATOM     16  C   UNL     1      34.780 -14.728 -23.821  0.00  0.00    +0.041 C 
ATOM     17  C   UNL     1      34.061 -14.036 -24.794  0.00  0.00    +0.041 C 
ATOM     18  C   UNL     1      34.044 -16.826 -24.766  0.00  0.00    +0.092 C 
ATOM     19  C   UNL     1      33.332 -14.740 -25.754  0.00  0.00    +0.061 C 
ATOM     20  C   UNL     1      33.324 -16.134 -25.739  0.00  0.00    +0.026 C 
BRANCH  15  21
ATOM     21  O   UNL     1      35.488 -16.777 -22.838  0.00  0.00    -0.477 OA
BRANCH  21  22
ATOM     22  C   UNL     1      34.745 -17.554 -21.907  0.00  0.00    +0.183 C 
BRANCH  22  23
ATOM     23  C   UNL     1      35.625 -18.688 -21.406  0.00  0.00    -0.029 C 
BRANCH  23  24
ATOM     24  N   UNL     1      34.914 -19.494 -20.425  0.00  0.00    +0.389 N 
ATOM     25  C   UNL     1      33.519 -19.731 -20.801  0.00  0.00    -0.077 C 
ATOM     26  C   UNL     1      35.496 -20.827 -20.268  0.00  0.00    -0.077 C 
ATOM     27  C   UNL     1      33.108 -20.873 -19.884  0.00  0.00    -0.025 C 
ATOM     28  C   UNL     1      34.406 -21.590 -19.531  0.00  0.00    -0.025 C 
ATOM     29  H   UNL     1      34.981 -18.952 -19.563  0.00  0.00    -0.080 HD
ENDBRANCH  23  24
ENDBRANCH  22  23
ENDBRANCH  21  22
ENDBRANCH  15  21
ENDBRANCH   5  17
BRANCH   9  32
ATOM     30  O   UNL     1      29.899 -11.532 -21.105  0.00  0.00    -0.270 OA
ATOM     31  N   UNL     1      31.523 -10.511 -19.802  0.00  0.00    -0.300 N 
ATOM     32  C   UNL     1      31.065 -11.068 -21.017  0.00  0.00    +0.252 C 
ATOM     33  H   UNL     1      32.442 -10.159 -19.778  0.00  0.00    +0.150 HD
BRANCH  31  34
ATOM     34  C   UNL     1      30.736 -10.422 -18.593  0.00  0.00    +0.090 C 
ATOM     35  C   UNL     1      31.334 -11.255 -17.480  0.00  0.00    +0.023 C 
ENDBRANCH  31  34
ENDBRANCH   9  32
TORSDOF 7
ENDMDL
MODEL 7
REMARK VINA RESULT:      -9.0      7.647     14.452
REMARK  Name = 25210273
REMARK  7 active torsions:
REMARK  status: ('A' for Active; 'I' for Inactive)
REMARK    1  A    between atoms: C_5  and  C_17
REMARK    2  A    between atoms: C_9  and  C_32
REMARK    3  A    between atoms: C_15  and  O_21
REMARK    4  A    between atoms: O_21  and  C_22
REMARK    5  A    between atoms: C_22  and  C_23
REMARK    6  A    between atoms: C_23  and  N_24
REMARK    7  A    between atoms: N_31  and  C_34
REMARK                            x       y       z     vdW  Elec       q    Type
REMARK                         _______ _______ _______ _____ _____    ______ ____
ROOT
ATOM      1  S   UNL     1      33.098 -21.178 -19.643  0.00  0.00    -0.054 S 
ATOM      2  N   UNL     1      33.550 -23.695 -16.070  0.00  0.00    -0.332 NA
ATOM      3  N   UNL     1      32.063 -22.588 -17.633  0.00  0.00    -0.326 NA
ATOM      4  N   UNL     1      31.227 -23.840 -15.846  0.00  0.00    -0.283 N 
ATOM      5  C   UNL     1      34.636 -23.239 -16.730  0.00  0.00    +0.134 C 
ATOM      6  C   UNL     1      34.485 -22.437 -17.866  0.00  0.00    +0.135 C 
ATOM      7  C   UNL     1      33.180 -22.158 -18.251  0.00  0.00    +0.162 C 
ATOM      8  C   UNL     1      35.421 -21.818 -18.754  0.00  0.00    -0.001 C 
ATOM      9  C   UNL     1      34.804 -21.106 -19.759  0.00  0.00    +0.081 C 
ATOM     10  C   UNL     1      32.343 -23.345 -16.558  0.00  0.00    +0.196 C 
ATOM     11  H   UNL     1      31.361 -24.402 -15.048  0.00  0.00    +0.156 HD
ATOM     12  H   UNL     1      30.315 -23.623 -16.147  0.00  0.00    +0.156 HD
ENDROOT
BRANCH   5  17
ATOM     13 CL   UNL     1      39.962 -24.860 -14.588  0.00  0.00    -0.079 Cl
ATOM     14 CL   UNL     1      36.857 -21.100 -16.821  0.00  0.00    -0.082 Cl
ATOM     15  C   UNL     1      37.349 -25.294 -15.209  0.00  0.00    +0.149 C 
ATOM     16  C   UNL     1      36.111 -24.898 -15.713  0.00  0.00    +0.041 C 
ATOM     17  C   UNL     1      35.941 -23.608 -16.215  0.00  0.00    +0.041 C 
ATOM     18  C   UNL     1      38.419 -24.398 -15.206  0.00  0.00    +0.092 C 
ATOM     19  C   UNL     1      37.011 -22.712 -16.212  0.00  0.00    +0.061 C 
ATOM     20  C   UNL     1      38.250 -23.108 -15.708  0.00  0.00    +0.026 C 
BRANCH  15  21
ATOM     21  O   UNL     1      37.488 -26.567 -14.723  0.00  0.00    -0.477 OA
BRANCH  21  22
ATOM     22  C   UNL     1      36.904 -26.836 -13.454  0.00  0.00    +0.183 C 
BRANCH  22  23
ATOM     23  C   UNL     1      37.827 -26.306 -12.370  0.00  0.00    -0.029 C 
BRANCH  23  24
ATOM     24  N   UNL     1      37.209 -25.190 -11.669  0.00  0.00    +0.389 N 
ATOM     25  C   UNL     1      37.921 -23.930 -11.886  0.00  0.00    -0.077 C 
ATOM     26  C   UNL     1      35.841 -24.935 -12.121  0.00  0.00    -0.077 C 
ATOM     27  C   UNL     1      36.919 -22.886 -11.418  0.00  0.00    -0.025 C 
ATOM     28  C   UNL     1      35.553 -23.547 -11.569  0.00  0.00    -0.025 C 
ATOM     29  H   UNL     1      37.233 -25.469 -10.688  0.00  0.00    -0.080 HD
ENDBRANCH  23  24
ENDBRANCH  22  23
ENDBRANCH  21  22
ENDBRANCH  15  21
ENDBRANCH   5  17
BRANCH   9  32
ATOM     30  O   UNL     1      36.644 -20.209 -20.902  0.00  0.00    -0.270 OA
ATOM     31  N   UNL     1      34.545 -19.812 -21.804  0.00  0.00    -0.300 N 
ATOM     32  C   UNL     1      35.397 -20.361 -20.821  0.00  0.00    +0.252 C 
ATOM     33  H   UNL     1      33.576 -19.956 -21.701  0.00  0.00    +0.150 HD
BRANCH  31  34
ATOM     34  C   UNL     1      34.995 -19.055 -22.950  0.00  0.00    +0.090 C 
ATOM     35  C   UNL     1      35.045 -17.572 -22.650  0.00  0.00    +0.023 C 
ENDBRANCH  31  34
ENDBRANCH   9  32
TORSDOF 7
ENDMDL
MODEL 8
REMARK VINA RESULT:      -9.0      6.352     11.168
REMARK  Name = 25210273
REMARK  7 active torsions:
REMARK  status: ('A' for Active; 'I' for Inactive)
REMARK    1  A    between atoms: C_5  and  C_17
REMARK    2  A    between atoms: C_9  and  C_32
REMARK    3  A    between atoms: C_15  and  O_21
REMARK    4  A    between atoms: O_21  and  C_22
REMARK    5  A    between atoms: C_22  and  C_23
REMARK    6  A    between atoms: C_23  and  N_24
REMARK    7  A    between atoms: N_31  and  C_34
REMARK                            x       y       z     vdW  Elec       q    Type
REMARK                         _______ _______ _______ _____ _____    ______ ____
ROOT
ATOM      1  S   UNL     1      32.362 -24.527 -13.592  0.00  0.00    -0.054 S 
ATOM      2  N   UNL     1      31.433 -22.691 -17.475  0.00  0.00    -0.332 NA
ATOM      3  N   UNL     1      30.619 -23.763 -15.457  0.00  0.00    -0.326 NA
ATOM      4  N   UNL     1      29.150 -23.068 -17.137  0.00  0.00    -0.283 N 
ATOM      5  C   UNL     1      32.710 -22.784 -17.047  0.00  0.00    +0.134 C 
ATOM      6  C   UNL     1      32.999 -23.370 -15.811  0.00  0.00    +0.135 C 
ATOM      7  C   UNL     1      31.910 -23.831 -15.081  0.00  0.00    +0.162 C 
ATOM      8  C   UNL     1      34.221 -23.606 -15.105  0.00  0.00    -0.001 C 
ATOM      9  C   UNL     1      34.019 -24.226 -13.892  0.00  0.00    +0.081 C 
ATOM     10  C   UNL     1      30.476 -23.181 -16.662  0.00  0.00    +0.196 C 
ATOM     11  H   UNL     1      28.974 -22.651 -18.012  0.00  0.00    +0.156 HD
ATOM     12  H   UNL     1      28.401 -23.406 -16.594  0.00  0.00    +0.156 HD
ENDROOT
BRANCH   5  17
ATOM     13 CL   UNL     1      36.903 -20.591 -20.680  0.00  0.00    -0.079 Cl
ATOM     14 CL   UNL     1      35.638 -23.241 -16.193  0.00  0.00    -0.082 Cl
ATOM     15  C   UNL     1      34.331 -21.067 -19.933  0.00  0.00    +0.149 C 
ATOM     16  C   UNL     1      33.364 -21.586 -19.073  0.00  0.00    +0.041 C 
ATOM     17  C   UNL     1      33.750 -22.260 -17.914  0.00  0.00    +0.041 C 
ATOM     18  C   UNL     1      35.685 -21.222 -19.634  0.00  0.00    +0.092 C 
ATOM     19  C   UNL     1      35.104 -22.415 -17.615  0.00  0.00    +0.061 C 
ATOM     20  C   UNL     1      36.071 -21.896 -18.475  0.00  0.00    +0.026 C 
BRANCH  15  21
ATOM     21  O   UNL     1      33.925 -20.410 -21.064  0.00  0.00    -0.477 OA
BRANCH  21  22
ATOM     22  C   UNL     1      33.919 -18.989 -21.012  0.00  0.00    +0.183 C 
BRANCH  22  23
ATOM     23  C   UNL     1      34.580 -18.452 -22.270  0.00  0.00    -0.029 C 
BRANCH  23  24
ATOM     24  N   UNL     1      34.885 -17.036 -22.125  0.00  0.00    +0.389 N 
ATOM     25  C   UNL     1      34.477 -16.254 -23.293  0.00  0.00    -0.077 C 
ATOM     26  C   UNL     1      34.183 -16.425 -20.997  0.00  0.00    -0.077 C 
ATOM     27  C   UNL     1      34.519 -14.823 -22.778  0.00  0.00    -0.025 C 
ATOM     28  C   UNL     1      34.330 -14.936 -21.269  0.00  0.00    -0.025 C 
ATOM     29  H   UNL     1      35.896 -17.012 -21.994  0.00  0.00    -0.080 HD
ENDBRANCH  23  24
ENDBRANCH  22  23
ENDBRANCH  21  22
ENDBRANCH  15  21
ENDBRANCH   5  17
BRANCH   9  32
ATOM     30  O   UNL     1      34.839 -24.344 -11.698  0.00  0.00    -0.270 OA
ATOM     31  N   UNL     1      36.107 -25.355 -13.356  0.00  0.00    -0.300 N 
ATOM     32  C   UNL     1      34.984 -24.620 -12.918  0.00  0.00    +0.252 C 
ATOM     33  H   UNL     1      36.180 -25.548 -14.318  0.00  0.00    +0.150 HD
BRANCH  31  34
ATOM     34  C   UNL     1      37.156 -25.844 -12.490  0.00  0.00    +0.090 C 
ATOM     35  C   UNL     1      38.524 -25.637 -13.104  0.00  0.00    +0.023 C 
ENDBRANCH  31  34
ENDBRANCH   9  32
TORSDOF 7
ENDMDL
MODEL 9
REMARK VINA RESULT:      -8.7      8.760     13.093
REMARK  Name = 25210273
REMARK  7 active torsions:
REMARK  status: ('A' for Active; 'I' for Inactive)
REMARK    1  A    between atoms: C_5  and  C_17
REMARK    2  A    between atoms: C_9  and  C_32
REMARK    3  A    between atoms: C_15  and  O_21
REMARK    4  A    between atoms: O_21  and  C_22
REMARK    5  A    between atoms: C_22  and  C_23
REMARK    6  A    between atoms: C_23  and  N_24
REMARK    7  A    between atoms: N_31  and  C_34
REMARK                            x       y       z     vdW  Elec       q    Type
REMARK                         _______ _______ _______ _____ _____    ______ ____
ROOT
ATOM      1  S   UNL     1      36.394 -21.324 -19.282  0.00  0.00    -0.054 S 
ATOM      2  N   UNL     1      36.516 -23.464 -15.446  0.00  0.00    -0.332 NA
ATOM      3  N   UNL     1      37.741 -22.438 -17.270  0.00  0.00    -0.326 NA
ATOM      4  N   UNL     1      38.853 -23.436 -15.474  0.00  0.00    -0.283 N 
ATOM      5  C   UNL     1      35.334 -23.150 -16.020  0.00  0.00    +0.134 C 
ATOM      6  C   UNL     1      35.303 -22.469 -17.241  0.00  0.00    +0.135 C 
ATOM      7  C   UNL     1      36.535 -22.151 -17.799  0.00  0.00    +0.162 C 
ATOM      8  C   UNL     1      34.234 -22.010 -18.075  0.00  0.00    -0.001 C 
ATOM      9  C   UNL     1      34.686 -21.374 -19.210  0.00  0.00    +0.081 C 
ATOM     10  C   UNL     1      37.634 -23.093 -16.100  0.00  0.00    +0.196 C 
ATOM     11  H   UNL     1      38.848 -23.916 -14.614  0.00  0.00    +0.156 HD
ATOM     12  H   UNL     1      39.710 -23.194 -15.897  0.00  0.00    +0.156 HD
ENDROOT
BRANCH   5  17
ATOM     13 CL   UNL     1      30.296 -24.699 -13.227  0.00  0.00    -0.079 Cl
ATOM     14 CL   UNL     1      35.562 -25.421 -13.946  0.00  0.00    -0.082 Cl
ATOM     15  C   UNL     1      31.751 -23.230 -14.995  0.00  0.00    +0.149 C 
ATOM     16  C   UNL     1      32.938 -22.880 -15.638  0.00  0.00    +0.041 C 
ATOM     17  C   UNL     1      34.123 -23.546 -15.326  0.00  0.00    +0.041 C 
ATOM     18  C   UNL     1      31.749 -24.247 -14.039  0.00  0.00    +0.092 C 
ATOM     19  C   UNL     1      34.121 -24.562 -14.371  0.00  0.00    +0.061 C 
ATOM     20  C   UNL     1      32.935 -24.912 -13.728  0.00  0.00    +0.026 C 
BRANCH  15  21
ATOM     21  O   UNL     1      30.601 -22.560 -15.320  0.00  0.00    -0.477 OA
BRANCH  21  22
ATOM     22  C   UNL     1      29.995 -22.892 -16.563  0.00  0.00    +0.183 C 
BRANCH  22  23
ATOM     23  C   UNL     1      28.882 -23.895 -16.309  0.00  0.00    -0.029 C 
BRANCH  23  24
ATOM     24  N   UNL     1      27.581 -23.295 -16.569  0.00  0.00    +0.389 N 
ATOM     25  C   UNL     1      27.158 -22.392 -15.498  0.00  0.00    -0.077 C 
ATOM     26  C   UNL     1      27.576 -22.475 -17.780  0.00  0.00    -0.077 C 
ATOM     27  C   UNL     1      26.023 -21.610 -16.140  0.00  0.00    -0.025 C 
ATOM     28  C   UNL     1      26.295 -21.667 -17.639  0.00  0.00    -0.025 C 
ATOM     29  H   UNL     1      26.953 -24.094 -16.655  0.00  0.00    -0.080 HD
ENDBRANCH  23  24
ENDBRANCH  22  23
ENDBRANCH  21  22
ENDBRANCH  15  21
ENDBRANCH   5  17
BRANCH   9  32
ATOM     30  O   UNL     1      32.692 -20.991 -20.382  0.00  0.00    -0.270 OA
ATOM     31  N   UNL     1      34.603 -19.947 -21.179  0.00  0.00    -0.300 N 
ATOM     32  C   UNL     1      33.928 -20.788 -20.267  0.00  0.00    +0.252 C 
ATOM     33  H   UNL     1      35.570 -19.816 -21.052  0.00  0.00    +0.150 HD
BRANCH  31  34
ATOM     34  C   UNL     1      33.971 -19.264 -22.286  0.00  0.00    +0.090 C 
ATOM     35  C   UNL     1      34.912 -19.132 -23.465  0.00  0.00    +0.023 C 
ENDBRANCH  31  34
ENDBRANCH   9  32
TORSDOF 7
ENDMDL
