MODEL 1
REMARK VINA RESULT:     -12.2      0.000      0.000
REMARK  Name = 49866474
REMARK  7 active torsions:
REMARK  status: ('A' for Active; 'I' for Inactive)
REMARK    1  A    between atoms: O_1  and  C_3
REMARK    2  A    between atoms: O_1  and  C_18
REMARK    3  A    between atoms: C_4  and  C_10
REMARK    4  A    between atoms: C_18  and  C_19
REMARK    5  A    between atoms: C_19  and  N_20
REMARK    6  A    between atoms: C_19  and  C_24
REMARK    7  A    between atoms: C_24  and  C_26
REMARK                            x       y       z     vdW  Elec       q    Type
REMARK                         _______ _______ _______ _____ _____    ______ ____
ROOT
ATOM      1  O   UNL     1      35.148 -15.273 -23.286  0.00  0.00    -0.476 OA
ENDROOT
BRANCH   1   3
ATOM      2  N   UNL     1      34.666 -18.516 -24.911  0.00  0.00    -0.239 NA
ATOM      3  C   UNL     1      34.954 -16.622 -23.435  0.00  0.00    +0.158 C 
ATOM      4  C   UNL     1      34.654 -18.823 -22.512  0.00  0.00    +0.022 C 
ATOM      5  C   UNL     1      34.850 -17.458 -22.330  0.00  0.00    +0.040 C 
ATOM      6  C   UNL     1      34.856 -17.195 -24.693  0.00  0.00    +0.136 C 
ATOM      7  C   UNL     1      34.570 -19.298 -23.811  0.00  0.00    +0.099 C 
BRANCH   4  10
ATOM      8  N   UNL     1      34.515 -22.253 -18.165  0.00  0.00    -0.236 N 
ATOM      9  N   UNL     1      35.808 -22.420 -17.842  0.00  0.00    -0.180 NA
ATOM     10  C   UNL     1      34.543 -19.717 -21.384  0.00  0.00    +0.002 C 
ATOM     11  C   UNL     1      35.575 -21.021 -19.638  0.00  0.00    +0.035 C 
ATOM     12  C   UNL     1      35.705 -20.151 -20.732  0.00  0.00    +0.003 C 
ATOM     13  C   UNL     1      34.306 -21.425 -19.235  0.00  0.00    +0.067 C 
ATOM     14  C   UNL     1      33.283 -20.138 -20.959  0.00  0.00    +0.001 C 
ATOM     15  C   UNL     1      33.137 -21.005 -19.871  0.00  0.00    +0.016 C 
ATOM     16  C   UNL     1      36.449 -21.669 -18.739  0.00  0.00    +0.119 C 
ATOM     17  H   UNL     1      33.781 -22.688 -17.675  0.00  0.00    +0.174 HD
ENDBRANCH   4  10
ENDBRANCH   1   3
BRANCH   1  18
ATOM     18  C   UNL     1      34.182 -14.567 -22.520  0.00  0.00    +0.184 C 
BRANCH  18  19
ATOM     19  C   UNL     1      33.612 -13.394 -23.326  0.00  0.00    -0.017 C 
BRANCH  19  20
ATOM     20  N   UNL     1      33.493 -13.814 -24.726  0.00  0.00    +0.384 N 
ATOM     21  H   UNL     1      33.067 -13.064 -25.271  0.00  0.00    -0.089 HD
ATOM     22  H   UNL     1      32.912 -14.649 -24.782  0.00  0.00    -0.089 HD
ATOM     23  H   UNL     1      34.421 -14.020 -25.099  0.00  0.00    -0.089 HD
ENDBRANCH  19  20
BRANCH  19  24
ATOM     24  C   UNL     1      32.226 -12.924 -22.821  0.00  0.00    +0.006 C 
BRANCH  24  26
ATOM     25  N   UNL     1      32.823  -9.216 -22.900  0.00  0.00    -0.234 NA
ATOM     26  C   UNL     1      32.122 -11.474 -22.572  0.00  0.00    -0.024 C 
ATOM     27  C   UNL     1      31.612 -10.743 -21.581  0.00  0.00    +0.065 C 
ATOM     28  C   UNL     1      31.844  -9.274 -21.796  0.00  0.00    +0.122 C 
ATOM     29  C   UNL     1      32.859 -10.447 -23.320  0.00  0.00    +0.072 C 
ATOM     30  C   UNL     1      31.048 -11.164 -20.324  0.00  0.00    -0.020 C 
ATOM     31  C   UNL     1      32.284  -8.590 -20.532  0.00  0.00    -0.004 C 
ATOM     32  C   UNL     1      31.199 -10.362 -19.253  0.00  0.00    -0.004 C 
ATOM     33  C   UNL     1      31.948  -9.115 -19.339  0.00  0.00    -0.003 C 
ENDBRANCH  24  26
ENDBRANCH  19  24
ENDBRANCH  18  19
ENDBRANCH   1  18
TORSDOF 7
ENDMDL
MODEL 2
REMARK VINA RESULT:     -11.9      1.831     10.030
REMARK  Name = 49866474
REMARK  7 active torsions:
REMARK  status: ('A' for Active; 'I' for Inactive)
REMARK    1  A    between atoms: O_1  and  C_3
REMARK    2  A    between atoms: O_1  and  C_18
REMARK    3  A    between atoms: C_4  and  C_10
REMARK    4  A    between atoms: C_18  and  C_19
REMARK    5  A    between atoms: C_19  and  N_20
REMARK    6  A    between atoms: C_19  and  C_24
REMARK    7  A    between atoms: C_24  and  C_26
REMARK                            x       y       z     vdW  Elec       q    Type
REMARK                         _______ _______ _______ _____ _____    ______ ____
ROOT
ATOM      1  O   UNL     1      34.269 -16.282 -23.318  0.00  0.00    -0.476 OA
ENDROOT
BRANCH   1   3
ATOM      2  N   UNL     1      33.131 -14.561 -26.340  0.00  0.00    -0.239 NA
ATOM      3  C   UNL     1      33.931 -15.261 -24.168  0.00  0.00    +0.158 C 
ATOM      4  C   UNL     1      33.675 -12.918 -24.650  0.00  0.00    +0.022 C 
ATOM      5  C   UNL     1      34.027 -13.933 -23.767  0.00  0.00    +0.040 C 
ATOM      6  C   UNL     1      33.481 -15.519 -25.453  0.00  0.00    +0.136 C 
ATOM      7  C   UNL     1      33.237 -13.281 -25.913  0.00  0.00    +0.099 C 
BRANCH   4  10
ATOM      8  N   UNL     1      33.791  -7.636 -22.988  0.00  0.00    -0.236 N 
ATOM      9  N   UNL     1      32.794  -7.557 -22.090  0.00  0.00    -0.180 NA
ATOM     10  C   UNL     1      33.764 -11.530 -24.263  0.00  0.00    +0.002 C 
ATOM     11  C   UNL     1      32.972  -9.670 -22.949  0.00  0.00    +0.035 C 
ATOM     12  C   UNL     1      32.869 -11.023 -23.311  0.00  0.00    +0.003 C 
ATOM     13  C   UNL     1      33.949  -8.878 -23.541  0.00  0.00    +0.067 C 
ATOM     14  C   UNL     1      34.736 -10.713 -24.841  0.00  0.00    +0.001 C 
ATOM     15  C   UNL     1      34.850  -9.364 -24.492  0.00  0.00    +0.016 C 
ATOM     16  C   UNL     1      32.299  -8.795 -22.069  0.00  0.00    +0.119 C 
ATOM     17  H   UNL     1      34.357  -6.868 -23.227  0.00  0.00    +0.174 HD
ENDBRANCH   4  10
ENDBRANCH   1   3
BRANCH   1  18
ATOM     18  C   UNL     1      34.774 -17.470 -23.913  0.00  0.00    +0.184 C 
BRANCH  18  19
ATOM     19  C   UNL     1      35.315 -18.419 -22.837  0.00  0.00    -0.017 C 
BRANCH  19  20
ATOM     20  N   UNL     1      36.733 -18.111 -22.623  0.00  0.00    +0.384 N 
ATOM     21  H   UNL     1      36.877 -17.103 -22.697  0.00  0.00    -0.089 HD
ATOM     22  H   UNL     1      37.294 -18.587 -23.328  0.00  0.00    -0.089 HD
ATOM     23  H   UNL     1      37.013 -18.427 -21.695  0.00  0.00    -0.089 HD
ENDBRANCH  19  20
BRANCH  19  24
ATOM     24  C   UNL     1      34.564 -18.301 -21.488  0.00  0.00    +0.006 C 
BRANCH  24  26
ATOM     25  N   UNL     1      32.662 -21.050 -19.775  0.00  0.00    -0.234 NA
ATOM     26  C   UNL     1      34.199 -19.591 -20.873  0.00  0.00    -0.024 C 
ATOM     27  C   UNL     1      34.901 -20.586 -20.331  0.00  0.00    +0.065 C 
ATOM     28  C   UNL     1      34.008 -21.657 -19.771  0.00  0.00    +0.122 C 
ATOM     29  C   UNL     1      32.837 -19.961 -20.464  0.00  0.00    +0.072 C 
ATOM     30  C   UNL     1      36.316 -20.682 -20.078  0.00  0.00    -0.020 C 
ATOM     31  C   UNL     1      34.480 -22.125 -18.423  0.00  0.00    -0.004 C 
ATOM     32  C   UNL     1      36.730 -21.384 -19.007  0.00  0.00    -0.004 C 
ATOM     33  C   UNL     1      35.780 -22.003 -18.093  0.00  0.00    -0.003 C 
ENDBRANCH  24  26
ENDBRANCH  19  24
ENDBRANCH  18  19
ENDBRANCH   1  18
TORSDOF 7
ENDMDL
MODEL 3
REMARK VINA RESULT:     -11.9      1.480      2.454
REMARK  Name = 49866474
REMARK  7 active torsions:
REMARK  status: ('A' for Active; 'I' for Inactive)
REMARK    1  A    between atoms: O_1  and  C_3
REMARK    2  A    between atoms: O_1  and  C_18
REMARK    3  A    between atoms: C_4  and  C_10
REMARK    4  A    between atoms: C_18  and  C_19
REMARK    5  A    between atoms: C_19  and  N_20
REMARK    6  A    between atoms: C_19  and  C_24
REMARK    7  A    between atoms: C_24  and  C_26
REMARK                            x       y       z     vdW  Elec       q    Type
REMARK                         _______ _______ _______ _____ _____    ______ ____
ROOT
ATOM      1  O   UNL     1      34.245 -14.254 -21.611  0.00  0.00    -0.476 OA
ENDROOT
BRANCH   1   3
ATOM      2  N   UNL     1      34.751 -16.858 -24.131  0.00  0.00    -0.239 NA
ATOM      3  C   UNL     1      34.473 -15.490 -22.156  0.00  0.00    +0.158 C 
ATOM      4  C   UNL     1      34.888 -17.849 -21.930  0.00  0.00    +0.022 C 
ATOM      5  C   UNL     1      34.657 -16.607 -21.348  0.00  0.00    +0.040 C 
ATOM      6  C   UNL     1      34.528 -15.668 -23.529  0.00  0.00    +0.136 C 
ATOM      7  C   UNL     1      34.926 -17.921 -23.313  0.00  0.00    +0.099 C 
BRANCH   4  10
ATOM      8  N   UNL     1      35.350 -22.399 -18.805  0.00  0.00    -0.236 N 
ATOM      9  N   UNL     1      34.080 -22.794 -18.616  0.00  0.00    -0.180 NA
ATOM     10  C   UNL     1      35.083 -19.027 -21.117  0.00  0.00    +0.002 C 
ATOM     11  C   UNL     1      34.180 -20.902 -19.899  0.00  0.00    +0.035 C 
ATOM     12  C   UNL     1      33.969 -19.760 -20.689  0.00  0.00    +0.003 C 
ATOM     13  C   UNL     1      35.479 -21.269 -19.566  0.00  0.00    +0.067 C 
ATOM     14  C   UNL     1      36.376 -19.418 -20.768  0.00  0.00    +0.001 C 
ATOM     15  C   UNL     1      36.603 -20.552 -19.982  0.00  0.00    +0.016 C 
ATOM     16  C   UNL     1      33.371 -21.881 -19.284  0.00  0.00    +0.119 C 
ATOM     17  H   UNL     1      36.121 -22.881 -18.428  0.00  0.00    +0.174 HD
ENDBRANCH   4  10
ENDBRANCH   1   3
BRANCH   1  18
ATOM     18  C   UNL     1      32.906 -13.953 -21.241  0.00  0.00    +0.184 C 
BRANCH  18  19
ATOM     19  C   UNL     1      32.418 -12.696 -21.969  0.00  0.00    -0.017 C 
BRANCH  19  20
ATOM     20  N   UNL     1      31.763 -13.111 -23.213  0.00  0.00    +0.384 N 
ATOM     21  H   UNL     1      31.529 -12.286 -23.766  0.00  0.00    -0.089 HD
ATOM     22  H   UNL     1      30.911 -13.626 -22.994  0.00  0.00    -0.089 HD
ATOM     23  H   UNL     1      32.395 -13.709 -23.746  0.00  0.00    -0.089 HD
ENDBRANCH  19  20
BRANCH  19  24
ATOM     24  C   UNL     1      31.423 -11.855 -21.131  0.00  0.00    +0.006 C 
BRANCH  24  26
ATOM     25  N   UNL     1      32.127  -8.549 -19.491  0.00  0.00    -0.234 NA
ATOM     26  C   UNL     1      31.846 -10.462 -20.891  0.00  0.00    -0.024 C 
ATOM     27  C   UNL     1      32.032  -9.405 -21.682  0.00  0.00    +0.065 C 
ATOM     28  C   UNL     1      32.400  -8.179 -20.895  0.00  0.00    +0.122 C 
ATOM     29  C   UNL     1      31.909  -9.830 -19.567  0.00  0.00    +0.072 C 
ATOM     30  C   UNL     1      31.776  -9.256 -23.092  0.00  0.00    -0.020 C 
ATOM     31  C   UNL     1      31.657  -6.965 -21.379  0.00  0.00    -0.004 C 
ATOM     32  C   UNL     1      31.400  -8.047 -23.551  0.00  0.00    -0.004 C 
ATOM     33  C   UNL     1      31.212  -6.919 -22.648  0.00  0.00    -0.003 C 
ENDBRANCH  24  26
ENDBRANCH  19  24
ENDBRANCH  18  19
ENDBRANCH   1  18
TORSDOF 7
ENDMDL
MODEL 4
REMARK VINA RESULT:     -11.8      1.731      9.832
REMARK  Name = 49866474
REMARK  7 active torsions:
REMARK  status: ('A' for Active; 'I' for Inactive)
REMARK    1  A    between atoms: O_1  and  C_3
REMARK    2  A    between atoms: O_1  and  C_18
REMARK    3  A    between atoms: C_4  and  C_10
REMARK    4  A    between atoms: C_18  and  C_19
REMARK    5  A    between atoms: C_19  and  N_20
REMARK    6  A    between atoms: C_19  and  C_24
REMARK    7  A    between atoms: C_24  and  C_26
REMARK                            x       y       z     vdW  Elec       q    Type
REMARK                         _______ _______ _______ _____ _____    ______ ____
ROOT
ATOM      1  O   UNL     1      35.398 -17.139 -23.362  0.00  0.00    -0.476 OA
ENDROOT
BRANCH   1   3
ATOM      2  N   UNL     1      33.560 -15.601 -26.127  0.00  0.00    -0.239 NA
ATOM      3  C   UNL     1      34.660 -16.223 -24.065  0.00  0.00    +0.158 C 
ATOM      4  C   UNL     1      33.510 -14.115 -24.220  0.00  0.00    +0.022 C 
ATOM      5  C   UNL     1      34.259 -15.025 -23.482  0.00  0.00    +0.040 C 
ATOM      6  C   UNL     1      34.288 -16.460 -25.379  0.00  0.00    +0.136 C 
ATOM      7  C   UNL     1      33.189 -14.447 -25.526  0.00  0.00    +0.099 C 
BRANCH   4  10
ATOM      8  N   UNL     1      32.040  -9.179 -22.181  0.00  0.00    -0.236 N 
ATOM      9  N   UNL     1      32.776  -8.304 -22.887  0.00  0.00    -0.180 NA
ATOM     10  C   UNL     1      33.079 -12.864 -23.642  0.00  0.00    +0.002 C 
ATOM     11  C   UNL     1      33.194 -10.458 -23.539  0.00  0.00    +0.035 C 
ATOM     12  C   UNL     1      33.625 -11.663 -24.115  0.00  0.00    +0.003 C 
ATOM     13  C   UNL     1      32.244 -10.489 -22.523  0.00  0.00    +0.067 C 
ATOM     14  C   UNL     1      32.127 -12.866 -22.622  0.00  0.00    +0.001 C 
ATOM     15  C   UNL     1      31.688 -11.674 -22.038  0.00  0.00    +0.016 C 
ATOM     16  C   UNL     1      33.476  -9.085 -23.712  0.00  0.00    +0.119 C 
ATOM     17  H   UNL     1      31.409  -8.903 -21.479  0.00  0.00    +0.174 HD
ENDBRANCH   4  10
ENDBRANCH   1   3
BRANCH   1  18
ATOM     18  C   UNL     1      34.943 -18.485 -23.389  0.00  0.00    +0.184 C 
BRANCH  18  19
ATOM     19  C   UNL     1      35.431 -19.241 -22.148  0.00  0.00    -0.017 C 
BRANCH  19  20
ATOM     20  N   UNL     1      36.724 -18.677 -21.747  0.00  0.00    +0.384 N 
ATOM     21  H   UNL     1      36.668 -17.658 -21.751  0.00  0.00    -0.089 HD
ATOM     22  H   UNL     1      37.445 -18.981 -22.400  0.00  0.00    -0.089 HD
ATOM     23  H   UNL     1      36.959 -19.000 -20.807  0.00  0.00    -0.089 HD
ENDBRANCH  19  20
BRANCH  19  24
ATOM     24  C   UNL     1      34.449 -19.150 -20.955  0.00  0.00    +0.006 C 
BRANCH  24  26
ATOM     25  N   UNL     1      32.779 -22.006 -19.175  0.00  0.00    -0.234 NA
ATOM     26  C   UNL     1      34.203 -20.429 -20.262  0.00  0.00    -0.024 C 
ATOM     27  C   UNL     1      34.978 -21.268 -19.575  0.00  0.00    +0.065 C 
ATOM     28  C   UNL     1      34.188 -22.411 -19.001  0.00  0.00    +0.122 C 
ATOM     29  C   UNL     1      32.871 -20.957 -19.941  0.00  0.00    +0.072 C 
ATOM     30  C   UNL     1      36.361 -21.141 -19.194  0.00  0.00    -0.020 C 
ATOM     31  C   UNL     1      34.585 -22.703 -17.581  0.00  0.00    -0.004 C 
ATOM     32  C   UNL     1      36.760 -21.694 -18.033  0.00  0.00    -0.004 C 
ATOM     33  C   UNL     1      35.818 -22.372 -17.153  0.00  0.00    -0.003 C 
ENDBRANCH  24  26
ENDBRANCH  19  24
ENDBRANCH  18  19
ENDBRANCH   1  18
TORSDOF 7
ENDMDL
MODEL 5
REMARK VINA RESULT:     -11.7      4.820     11.699
REMARK  Name = 49866474
REMARK  7 active torsions:
REMARK  status: ('A' for Active; 'I' for Inactive)
REMARK    1  A    between atoms: O_1  and  C_3
REMARK    2  A    between atoms: O_1  and  C_18
REMARK    3  A    between atoms: C_4  and  C_10
REMARK    4  A    between atoms: C_18  and  C_19
REMARK    5  A    between atoms: C_19  and  N_20
REMARK    6  A    between atoms: C_19  and  C_24
REMARK    7  A    between atoms: C_24  and  C_26
REMARK                            x       y       z     vdW  Elec       q    Type
REMARK                         _______ _______ _______ _____ _____    ______ ____
ROOT
ATOM      1  O   UNL     1      36.197 -22.374 -18.374  0.00  0.00    -0.476 OA
ENDROOT
BRANCH   1   3
ATOM      2  N   UNL     1      32.804 -21.648 -19.534  0.00  0.00    -0.239 NA
ATOM      3  C   UNL     1      35.172 -21.780 -19.062  0.00  0.00    +0.158 C 
ATOM      4  C   UNL     1      34.354 -20.158 -20.640  0.00  0.00    +0.022 C 
ATOM      5  C   UNL     1      35.415 -20.743 -19.957  0.00  0.00    +0.040 C 
ATOM      6  C   UNL     1      33.861 -22.192 -18.889  0.00  0.00    +0.136 C 
ATOM      7  C   UNL     1      33.080 -20.642 -20.395  0.00  0.00    +0.099 C 
BRANCH   4  10
ATOM      8  N   UNL     1      35.145 -16.207 -24.440  0.00  0.00    -0.236 N 
ATOM      9  N   UNL     1      34.916 -16.829 -25.609  0.00  0.00    -0.180 NA
ATOM     10  C   UNL     1      34.575 -19.080 -21.575  0.00  0.00    +0.002 C 
ATOM     11  C   UNL     1      34.653 -18.257 -23.840  0.00  0.00    +0.035 C 
ATOM     12  C   UNL     1      34.433 -19.319 -22.948  0.00  0.00    +0.003 C 
ATOM     13  C   UNL     1      35.004 -17.008 -23.340  0.00  0.00    +0.067 C 
ATOM     14  C   UNL     1      34.927 -17.816 -21.100  0.00  0.00    +0.001 C 
ATOM     15  C   UNL     1      35.151 -16.749 -21.976  0.00  0.00    +0.016 C 
ATOM     16  C   UNL     1      34.617 -18.076 -25.240  0.00  0.00    +0.119 C 
ATOM     17  H   UNL     1      35.392 -15.256 -24.380  0.00  0.00    +0.174 HD
ENDBRANCH   4  10
ENDBRANCH   1   3
BRANCH   1  18
ATOM     18  C   UNL     1      36.873 -21.574 -17.413  0.00  0.00    +0.184 C 
BRANCH  18  19
ATOM     19  C   UNL     1      36.839 -22.248 -16.036  0.00  0.00    -0.017 C 
BRANCH  19  20
ATOM     20  N   UNL     1      35.540 -22.909 -15.881  0.00  0.00    +0.384 N 
ATOM     21  H   UNL     1      35.618 -23.885 -16.169  0.00  0.00    -0.089 HD
ATOM     22  H   UNL     1      34.847 -22.438 -16.461  0.00  0.00    -0.089 HD
ATOM     23  H   UNL     1      35.251 -22.866 -14.904  0.00  0.00    -0.089 HD
ENDBRANCH  19  20
BRANCH  19  24
ATOM     24  C   UNL     1      37.964 -23.293 -15.842  0.00  0.00    +0.006 C 
BRANCH  24  26
ATOM     25  N   UNL     1      36.926 -26.331 -13.891  0.00  0.00    -0.234 NA
ATOM     26  C   UNL     1      37.730 -24.252 -14.746  0.00  0.00    -0.024 C 
ATOM     27  C   UNL     1      37.625 -24.133 -13.423  0.00  0.00    +0.065 C 
ATOM     28  C   UNL     1      37.300 -25.446 -12.769  0.00  0.00    +0.122 C 
ATOM     29  C   UNL     1      37.265 -25.633 -14.936  0.00  0.00    +0.072 C 
ATOM     30  C   UNL     1      37.618 -22.947 -12.604  0.00  0.00    -0.020 C 
ATOM     31  C   UNL     1      36.243 -25.294 -11.712  0.00  0.00    -0.004 C 
ATOM     32  C   UNL     1      36.885 -22.952 -11.475  0.00  0.00    -0.004 C 
ATOM     33  C   UNL     1      36.080 -24.106 -11.099  0.00  0.00    -0.003 C 
ENDBRANCH  24  26
ENDBRANCH  19  24
ENDBRANCH  18  19
ENDBRANCH   1  18
TORSDOF 7
ENDMDL
MODEL 6
REMARK VINA RESULT:     -11.7      1.527      2.559
REMARK  Name = 49866474
REMARK  7 active torsions:
REMARK  status: ('A' for Active; 'I' for Inactive)
REMARK    1  A    between atoms: O_1  and  C_3
REMARK    2  A    between atoms: O_1  and  C_18
REMARK    3  A    between atoms: C_4  and  C_10
REMARK    4  A    between atoms: C_18  and  C_19
REMARK    5  A    between atoms: C_19  and  N_20
REMARK    6  A    between atoms: C_19  and  C_24
REMARK    7  A    between atoms: C_24  and  C_26
REMARK                            x       y       z     vdW  Elec       q    Type
REMARK                         _______ _______ _______ _____ _____    ______ ____
ROOT
ATOM      1  O   UNL     1      33.711 -13.292 -23.643  0.00  0.00    -0.476 OA
ENDROOT
BRANCH   1   3
ATOM      2  N   UNL     1      34.061 -16.269 -25.742  0.00  0.00    -0.239 NA
ATOM      3  C   UNL     1      33.946 -14.594 -24.001  0.00  0.00    +0.158 C 
ATOM      4  C   UNL     1      34.530 -16.861 -23.445  0.00  0.00    +0.022 C 
ATOM      5  C   UNL     1      34.296 -15.547 -23.052  0.00  0.00    +0.040 C 
ATOM      6  C   UNL     1      33.842 -15.003 -25.322  0.00  0.00    +0.136 C 
ATOM      7  C   UNL     1      34.400 -17.167 -24.790  0.00  0.00    +0.099 C 
BRANCH   4  10
ATOM      8  N   UNL     1      35.653 -20.808 -19.725  0.00  0.00    -0.236 N 
ATOM      9  N   UNL     1      34.450 -21.327 -19.429  0.00  0.00    -0.180 NA
ATOM     10  C   UNL     1      34.896 -17.872 -22.482  0.00  0.00    +0.002 C 
ATOM     11  C   UNL     1      34.273 -19.646 -20.971  0.00  0.00    +0.035 C 
ATOM     12  C   UNL     1      33.896 -18.669 -21.907  0.00  0.00    +0.003 C 
ATOM     13  C   UNL     1      35.617 -19.795 -20.644  0.00  0.00    +0.067 C 
ATOM     14  C   UNL     1      36.236 -18.043 -22.136  0.00  0.00    +0.001 C 
ATOM     15  C   UNL     1      36.627 -19.012 -21.206  0.00  0.00    +0.016 C 
ATOM     16  C   UNL     1      33.613 -20.618 -20.189  0.00  0.00    +0.119 C 
ATOM     17  H   UNL     1      36.489 -21.129 -19.317  0.00  0.00    +0.174 HD
ENDBRANCH   4  10
ENDBRANCH   1   3
BRANCH   1  18
ATOM     18  C   UNL     1      33.764 -12.322 -24.681  0.00  0.00    +0.184 C 
BRANCH  18  19
ATOM     19  C   UNL     1      34.173 -10.956 -24.117  0.00  0.00    -0.017 C 
BRANCH  19  20
ATOM     20  N   UNL     1      35.309 -10.459 -24.898  0.00  0.00    +0.384 N 
ATOM     21  H   UNL     1      35.472 -11.076 -25.694  0.00  0.00    -0.089 HD
ATOM     22  H   UNL     1      36.142 -10.435 -24.311  0.00  0.00    -0.089 HD
ATOM     23  H   UNL     1      35.104  -9.518 -25.235  0.00  0.00    -0.089 HD
ENDBRANCH  19  20
BRANCH  19  24
ATOM     24  C   UNL     1      33.031  -9.912 -24.165  0.00  0.00    +0.006 C 
BRANCH  24  26
ATOM     25  N   UNL     1      32.907  -7.953 -20.962  0.00  0.00    -0.234 NA
ATOM     26  C   UNL     1      32.622  -9.387 -22.849  0.00  0.00    -0.024 C 
ATOM     27  C   UNL     1      31.872  -9.868 -21.857  0.00  0.00    +0.065 C 
ATOM     28  C   UNL     1      31.840  -8.934 -20.680  0.00  0.00    +0.122 C 
ATOM     29  C   UNL     1      33.227  -8.219 -22.195  0.00  0.00    +0.072 C 
ATOM     30  C   UNL     1      31.263 -11.165 -21.711  0.00  0.00    -0.020 C 
ATOM     31  C   UNL     1      31.995  -9.673 -19.381  0.00  0.00    -0.004 C 
ATOM     32  C   UNL     1      31.135 -11.678 -20.473  0.00  0.00    -0.004 C 
ATOM     33  C   UNL     1      31.634 -10.967 -19.303  0.00  0.00    -0.003 C 
ENDBRANCH  24  26
ENDBRANCH  19  24
ENDBRANCH  18  19
ENDBRANCH   1  18
TORSDOF 7
ENDMDL
MODEL 7
REMARK VINA RESULT:     -11.6      4.882     10.737
REMARK  Name = 49866474
REMARK  7 active torsions:
REMARK  status: ('A' for Active; 'I' for Inactive)
REMARK    1  A    between atoms: O_1  and  C_3
REMARK    2  A    between atoms: O_1  and  C_18
REMARK    3  A    between atoms: C_4  and  C_10
REMARK    4  A    between atoms: C_18  and  C_19
REMARK    5  A    between atoms: C_19  and  N_20
REMARK    6  A    between atoms: C_19  and  C_24
REMARK    7  A    between atoms: C_24  and  C_26
REMARK                            x       y       z     vdW  Elec       q    Type
REMARK                         _______ _______ _______ _____ _____    ______ ____
ROOT
ATOM      1  O   UNL     1      36.096 -22.379 -18.314  0.00  0.00    -0.476 OA
ENDROOT
BRANCH   1   3
ATOM      2  N   UNL     1      32.743 -21.645 -19.583  0.00  0.00    -0.239 NA
ATOM      3  C   UNL     1      35.095 -21.782 -19.035  0.00  0.00    +0.158 C 
ATOM      4  C   UNL     1      34.332 -20.159 -20.638  0.00  0.00    +0.022 C 
ATOM      5  C   UNL     1      35.369 -20.746 -19.921  0.00  0.00    +0.040 C 
ATOM      6  C   UNL     1      33.777 -22.191 -18.904  0.00  0.00    +0.136 C 
ATOM      7  C   UNL     1      33.049 -20.640 -20.435  0.00  0.00    +0.099 C 
BRANCH   4  10
ATOM      8  N   UNL     1      35.236 -16.203 -24.408  0.00  0.00    -0.236 N 
ATOM      9  N   UNL     1      34.956 -16.801 -25.579  0.00  0.00    -0.180 NA
ATOM     10  C   UNL     1      34.586 -19.081 -21.565  0.00  0.00    +0.002 C 
ATOM     11  C   UNL     1      34.660 -18.236 -23.822  0.00  0.00    +0.035 C 
ATOM     12  C   UNL     1      34.406 -19.297 -22.937  0.00  0.00    +0.003 C 
ATOM     13  C   UNL     1      35.078 -17.010 -23.315  0.00  0.00    +0.067 C 
ATOM     14  C   UNL     1      35.006 -17.841 -21.083  0.00  0.00    +0.001 C 
ATOM     15  C   UNL     1      35.263 -16.775 -21.951  0.00  0.00    +0.016 C 
ATOM     16  C   UNL     1      34.606 -18.036 -25.218  0.00  0.00    +0.119 C 
ATOM     17  H   UNL     1      35.529 -15.266 -24.343  0.00  0.00    +0.174 HD
ENDBRANCH   4  10
ENDBRANCH   1   3
BRANCH   1  18
ATOM     18  C   UNL     1      36.337 -21.871 -17.008  0.00  0.00    +0.184 C 
BRANCH  18  19
ATOM     19  C   UNL     1      36.065 -22.951 -15.954  0.00  0.00    -0.017 C 
BRANCH  19  20
ATOM     20  N   UNL     1      35.940 -22.297 -14.648  0.00  0.00    +0.384 N 
ATOM     21  H   UNL     1      36.736 -22.551 -14.063  0.00  0.00    -0.089 HD
ATOM     22  H   UNL     1      35.077 -22.598 -14.198  0.00  0.00    -0.089 HD
ATOM     23  H   UNL     1      35.923 -21.285 -14.776  0.00  0.00    -0.089 HD
ENDBRANCH  19  20
BRANCH  19  24
ATOM     24  C   UNL     1      34.779 -23.766 -16.236  0.00  0.00    +0.006 C 
BRANCH  24  26
ATOM     25  N   UNL     1      32.904 -24.400 -13.043  0.00  0.00    -0.234 NA
ATOM     26  C   UNL     1      33.772 -23.717 -15.159  0.00  0.00    -0.024 C 
ATOM     27  C   UNL     1      32.490 -23.356 -15.111  0.00  0.00    +0.065 C 
ATOM     28  C   UNL     1      31.899 -23.578 -13.747  0.00  0.00    +0.122 C 
ATOM     29  C   UNL     1      33.926 -24.361 -13.848  0.00  0.00    +0.072 C 
ATOM     30  C   UNL     1      31.605 -22.961 -16.177  0.00  0.00    -0.020 C 
ATOM     31  C   UNL     1      30.531 -24.195 -13.828  0.00  0.00    -0.004 C 
ATOM     32  C   UNL     1      30.298 -23.266 -16.073  0.00  0.00    -0.004 C 
ATOM     33  C   UNL     1      29.784 -24.015 -14.933  0.00  0.00    -0.003 C 
ENDBRANCH  24  26
ENDBRANCH  19  24
ENDBRANCH  18  19
ENDBRANCH   1  18
TORSDOF 7
ENDMDL
MODEL 8
REMARK VINA RESULT:     -11.6      2.893      4.641
REMARK  Name = 49866474
REMARK  7 active torsions:
REMARK  status: ('A' for Active; 'I' for Inactive)
REMARK    1  A    between atoms: O_1  and  C_3
REMARK    2  A    between atoms: O_1  and  C_18
REMARK    3  A    between atoms: C_4  and  C_10
REMARK    4  A    between atoms: C_18  and  C_19
REMARK    5  A    between atoms: C_19  and  N_20
REMARK    6  A    between atoms: C_19  and  C_24
REMARK    7  A    between atoms: C_24  and  C_26
REMARK                            x       y       z     vdW  Elec       q    Type
REMARK                         _______ _______ _______ _____ _____    ______ ____
ROOT
ATOM      1  O   UNL     1      33.483 -10.366 -24.709  0.00  0.00    -0.476 OA
ENDROOT
BRANCH   1   3
ATOM      2  N   UNL     1      33.228 -13.535 -26.518  0.00  0.00    -0.239 NA
ATOM      3  C   UNL     1      33.527 -11.713 -24.958  0.00  0.00    +0.158 C 
ATOM      4  C   UNL     1      33.933 -13.975 -24.247  0.00  0.00    +0.022 C 
ATOM      5  C   UNL     1      33.896 -12.614 -23.965  0.00  0.00    +0.040 C 
ATOM      6  C   UNL     1      33.204 -12.220 -26.206  0.00  0.00    +0.136 C 
ATOM      7  C   UNL     1      33.593 -14.381 -25.528  0.00  0.00    +0.099 C 
BRANCH   4  10
ATOM      8  N   UNL     1      35.486 -17.829 -20.586  0.00  0.00    -0.236 N 
ATOM      9  N   UNL     1      36.014 -18.805 -21.345  0.00  0.00    -0.180 NA
ATOM     10  C   UNL     1      34.313 -14.935 -23.238  0.00  0.00    +0.002 C 
ATOM     11  C   UNL     1      35.280 -17.057 -22.628  0.00  0.00    +0.035 C 
ATOM     12  C   UNL     1      34.920 -16.137 -23.625  0.00  0.00    +0.003 C 
ATOM     13  C   UNL     1      35.027 -16.753 -21.295  0.00  0.00    +0.067 C 
ATOM     14  C   UNL     1      34.070 -14.654 -21.893  0.00  0.00    +0.001 C 
ATOM     15  C   UNL     1      34.423 -15.561 -20.888  0.00  0.00    +0.016 C 
ATOM     16  C   UNL     1      35.887 -18.331 -22.586  0.00  0.00    +0.119 C 
ATOM     17  H   UNL     1      35.434 -17.885 -19.604  0.00  0.00    +0.174 HD
ENDBRANCH   4  10
ENDBRANCH   1   3
BRANCH   1  18
ATOM     18  C   UNL     1      34.657  -9.775 -24.167  0.00  0.00    +0.184 C 
BRANCH  18  19
ATOM     19  C   UNL     1      34.339  -8.398 -23.573  0.00  0.00    -0.017 C 
BRANCH  19  20
ATOM     20  N   UNL     1      34.824  -7.374 -24.503  0.00  0.00    +0.384 N 
ATOM     21  H   UNL     1      34.169  -6.591 -24.519  0.00  0.00    -0.089 HD
ATOM     22  H   UNL     1      34.900  -7.772 -25.438  0.00  0.00    -0.089 HD
ATOM     23  H   UNL     1      35.739  -7.043 -24.198  0.00  0.00    -0.089 HD
ENDBRANCH  19  20
BRANCH  19  24
ATOM     24  C   UNL     1      32.827  -8.178 -23.322  0.00  0.00    +0.006 C 
BRANCH  24  26
ATOM     25  N   UNL     1      32.492  -8.243 -19.581  0.00  0.00    -0.234 NA
ATOM     26  C   UNL     1      32.379  -8.492 -21.952  0.00  0.00    -0.024 C 
ATOM     27  C   UNL     1      31.742  -9.527 -21.406  0.00  0.00    +0.065 C 
ATOM     28  C   UNL     1      31.598  -9.370 -19.918  0.00  0.00    +0.122 C 
ATOM     29  C   UNL     1      32.814  -7.769 -20.750  0.00  0.00    +0.072 C 
ATOM     30  C   UNL     1      31.346 -10.780 -21.996  0.00  0.00    -0.020 C 
ATOM     31  C   UNL     1      31.903 -10.650 -19.192  0.00  0.00    -0.004 C 
ATOM     32  C   UNL     1      31.335 -11.880 -21.221  0.00  0.00    -0.004 C 
ATOM     33  C   UNL     1      31.750 -11.828 -19.825  0.00  0.00    -0.003 C 
ENDBRANCH  24  26
ENDBRANCH  19  24
ENDBRANCH  18  19
ENDBRANCH   1  18
TORSDOF 7
ENDMDL
MODEL 9
REMARK VINA RESULT:     -11.6      4.985      8.513
REMARK  Name = 49866474
REMARK  7 active torsions:
REMARK  status: ('A' for Active; 'I' for Inactive)
REMARK    1  A    between atoms: O_1  and  C_3
REMARK    2  A    between atoms: O_1  and  C_18
REMARK    3  A    between atoms: C_4  and  C_10
REMARK    4  A    between atoms: C_18  and  C_19
REMARK    5  A    between atoms: C_19  and  N_20
REMARK    6  A    between atoms: C_19  and  C_24
REMARK    7  A    between atoms: C_24  and  C_26
REMARK                            x       y       z     vdW  Elec       q    Type
REMARK                         _______ _______ _______ _____ _____    ______ ____
ROOT
ATOM      1  O   UNL     1      32.946 -22.357 -18.929  0.00  0.00    -0.476 OA
ENDROOT
BRANCH   1   3
ATOM      2  N   UNL     1      31.588 -23.355 -15.681  0.00  0.00    -0.239 NA
ATOM      3  C   UNL     1      32.904 -22.801 -17.633  0.00  0.00    +0.158 C 
ATOM      4  C   UNL     1      33.994 -23.595 -15.641  0.00  0.00    +0.022 C 
ATOM      5  C   UNL     1      34.068 -23.146 -16.955  0.00  0.00    +0.040 C 
ATOM      6  C   UNL     1      31.700 -22.922 -16.957  0.00  0.00    +0.136 C 
ATOM      7  C   UNL     1      32.742 -23.681 -15.054  0.00  0.00    +0.099 C 
BRANCH   4  10
ATOM      8  N   UNL     1      38.527 -24.759 -12.679  0.00  0.00    -0.236 N 
ATOM      9  N   UNL     1      38.594 -23.761 -11.782  0.00  0.00    -0.180 NA
ATOM     10  C   UNL     1      35.185 -23.960 -14.911  0.00  0.00    +0.002 C 
ATOM     11  C   UNL     1      36.781 -23.523 -13.156  0.00  0.00    +0.035 C 
ATOM     12  C   UNL     1      35.619 -23.150 -13.852  0.00  0.00    +0.003 C 
ATOM     13  C   UNL     1      37.462 -24.675 -13.534  0.00  0.00    +0.067 C 
ATOM     14  C   UNL     1      35.888 -25.111 -15.268  0.00  0.00    +0.001 C 
ATOM     15  C   UNL     1      37.046 -25.494 -14.585  0.00  0.00    +0.016 C 
ATOM     16  C   UNL     1      37.530 -23.012 -12.075  0.00  0.00    +0.119 C 
ATOM     17  H   UNL     1      39.187 -25.488 -12.718  0.00  0.00    +0.174 HD
ENDBRANCH   4  10
ENDBRANCH   1   3
BRANCH   1  18
ATOM     18  C   UNL     1      34.223 -22.309 -19.550  0.00  0.00    +0.184 C 
BRANCH  18  19
ATOM     19  C   UNL     1      34.647 -20.856 -19.792  0.00  0.00    -0.017 C 
BRANCH  19  20
ATOM     20  N   UNL     1      36.055 -20.851 -20.201  0.00  0.00    +0.384 N 
ATOM     21  H   UNL     1      36.549 -20.105 -19.710  0.00  0.00    -0.089 HD
ATOM     22  H   UNL     1      36.117 -20.696 -21.206  0.00  0.00    -0.089 HD
ATOM     23  H   UNL     1      36.480 -21.749 -19.969  0.00  0.00    -0.089 HD
ENDBRANCH  19  20
BRANCH  19  24
ATOM     24  C   UNL     1      33.803 -20.149 -20.880  0.00  0.00    +0.006 C 
BRANCH  24  26
ATOM     25  N   UNL     1      34.971 -16.635 -21.516  0.00  0.00    -0.234 NA
ATOM     26  C   UNL     1      34.442 -18.963 -21.480  0.00  0.00    -0.024 C 
ATOM     27  C   UNL     1      34.842 -18.657 -22.714  0.00  0.00    +0.065 C 
ATOM     28  C   UNL     1      35.373 -17.253 -22.796  0.00  0.00    +0.122 C 
ATOM     29  C   UNL     1      34.544 -17.652 -20.825  0.00  0.00    +0.072 C 
ATOM     30  C   UNL     1      34.687 -19.396 -23.941  0.00  0.00    -0.020 C 
ATOM     31  C   UNL     1      34.871 -16.540 -24.020  0.00  0.00    -0.004 C 
ATOM     32  C   UNL     1      34.544 -18.709 -25.090  0.00  0.00    -0.004 C 
ATOM     33  C   UNL     1      34.504 -17.252 -25.102  0.00  0.00    -0.003 C 
ENDBRANCH  24  26
ENDBRANCH  19  24
ENDBRANCH  18  19
ENDBRANCH   1  18
TORSDOF 7
ENDMDL
