MODEL 1
REMARK VINA RESULT:     -12.4      0.000      0.000
REMARK  Name = 6450551
REMARK  5 active torsions:
REMARK  status: ('A' for Active; 'I' for Inactive)
REMARK    1  A    between atoms: C_5  and  C_11
REMARK    2  A    between atoms: C_7  and  S_19
REMARK    3  A    between atoms: C_12  and  C_14
REMARK    4  A    between atoms: S_19  and  C_20
REMARK    5  A    between atoms: C_21  and  C_28
REMARK                            x       y       z     vdW  Elec       q    Type
REMARK                         _______ _______ _______ _____ _____    ______ ____
ROOT
ATOM      1  N   UNL     1      36.267 -21.721 -19.038  0.00  0.00    -0.276 N 
ATOM      2  N   UNL     1      35.596 -22.434 -18.117  0.00  0.00    -0.173 NA
ATOM      3  C   UNL     1      34.164 -21.304 -19.500  0.00  0.00    +0.036 A 
ATOM      4  C   UNL     1      35.465 -21.020 -19.898  0.00  0.00    +0.076 A 
ATOM      5  C   UNL     1      34.317 -22.178 -18.402  0.00  0.00    +0.102 A 
ATOM      6  C   UNL     1      35.766 -20.178 -20.971  0.00  0.00    +0.025 C 
ATOM      7  C   UNL     1      34.686 -19.611 -21.655  0.00  0.00    +0.031 C 
ATOM      8  C   UNL     1      33.089 -20.727 -20.197  0.00  0.00    +0.004 C 
ATOM      9  C   UNL     1      33.370 -19.880 -21.276  0.00  0.00    +0.007 C 
ATOM     10  H   UNL     1      37.250 -21.704 -19.089  0.00  0.00    +0.189 HD
ENDROOT
BRANCH   5  11
ATOM     11  C   UNL     1      33.238 -22.735 -17.666  0.00  0.00    +0.022 C 
ATOM     12  C   UNL     1      33.228 -23.121 -16.362  0.00  0.00    +0.021 C 
BRANCH  12  14
ATOM     13  N   UNL     1      32.374 -24.411 -14.553  0.00  0.00    -0.244 NA
ATOM     14  C   UNL     1      32.073 -23.707 -15.657  0.00  0.00    +0.081 C 
ATOM     15  C   UNL     1      30.808 -23.505 -16.155  0.00  0.00    +0.019 C 
ATOM     16  C   UNL     1      29.750 -24.077 -15.456  0.00  0.00    +0.003 C 
ATOM     17  C   UNL     1      31.323 -24.953 -13.900  0.00  0.00    +0.099 C 
ATOM     18  C   UNL     1      30.004 -24.817 -14.307  0.00  0.00    +0.021 C 
ENDBRANCH  12  14
ENDBRANCH   5  11
BRANCH   7  19
ATOM     19  S   UNL     1      35.000 -18.524 -23.037  0.00  0.00    -0.087 S 
BRANCH  19  20
ATOM     20  C   UNL     1      34.726 -16.925 -22.287  0.00  0.00    +0.034 C 
ATOM     21  C   UNL     1      34.394 -15.800 -23.046  0.00  0.00    +0.059 C 
ATOM     22  C   UNL     1      34.854 -16.814 -20.902  0.00  0.00    +0.007 C 
ATOM     23  C   UNL     1      34.189 -14.571 -22.419  0.00  0.00    +0.005 C 
ATOM     24  C   UNL     1      34.649 -15.585 -20.275  0.00  0.00    +0.001 C 
ATOM     25  C   UNL     1      34.317 -14.463 -21.035  0.00  0.00    +0.000 C 
BRANCH  21  28
ATOM     26  O   UNL     1      34.975 -16.600 -25.171  0.00  0.00    -0.270 OA
ATOM     27  N   UNL     1      33.248 -15.059 -25.059  0.00  0.00    -0.299 N 
ATOM     28  C   UNL     1      34.248 -15.856 -24.495  0.00  0.00    +0.246 C 
ATOM     29  C   UNL     1      32.963 -15.022 -26.477  0.00  0.00    +0.111 C 
ATOM     30  H   UNL     1      32.709 -14.493 -24.460  0.00  0.00    +0.150 HD
ENDBRANCH  21  28
ENDBRANCH  19  20
ENDBRANCH   7  19
TORSDOF 5
ENDMDL
MODEL 2
REMARK VINA RESULT:     -12.1      2.496      3.196
REMARK  Name = 6450551
REMARK  5 active torsions:
REMARK  status: ('A' for Active; 'I' for Inactive)
REMARK    1  A    between atoms: C_5  and  C_11
REMARK    2  A    between atoms: C_7  and  S_19
REMARK    3  A    between atoms: C_12  and  C_14
REMARK    4  A    between atoms: S_19  and  C_20
REMARK    5  A    between atoms: C_21  and  C_28
REMARK                            x       y       z     vdW  Elec       q    Type
REMARK                         _______ _______ _______ _____ _____    ______ ____
ROOT
ATOM      1  N   UNL     1      32.662 -20.847 -20.399  0.00  0.00    -0.276 N 
ATOM      2  N   UNL     1      32.980 -21.772 -19.477  0.00  0.00    -0.173 NA
ATOM      3  C   UNL     1      34.823 -20.583 -20.133  0.00  0.00    +0.036 A 
ATOM      4  C   UNL     1      33.724 -20.100 -20.835  0.00  0.00    +0.076 A 
ATOM      5  C   UNL     1      34.296 -21.608 -19.318  0.00  0.00    +0.102 A 
ATOM      6  C   UNL     1      33.811 -19.062 -21.765  0.00  0.00    +0.025 C 
ATOM      7  C   UNL     1      35.076 -18.506 -21.977  0.00  0.00    +0.031 C 
ATOM      8  C   UNL     1      36.088 -20.013 -20.357  0.00  0.00    +0.004 C 
ATOM      9  C   UNL     1      36.196 -18.972 -21.287  0.00  0.00    +0.007 C 
ATOM     10  H   UNL     1      31.746 -20.718 -20.734  0.00  0.00    +0.189 HD
ENDROOT
BRANCH   5  11
ATOM     11  C   UNL     1      35.065 -22.391 -18.418  0.00  0.00    +0.022 C 
ATOM     12  C   UNL     1      34.881 -22.550 -17.081  0.00  0.00    +0.021 C 
BRANCH  12  14
ATOM     13  N   UNL     1      35.155 -24.501 -15.744  0.00  0.00    -0.244 NA
ATOM     14  C   UNL     1      35.727 -23.372 -16.196  0.00  0.00    +0.081 C 
ATOM     15  C   UNL     1      37.000 -22.947 -15.898  0.00  0.00    +0.019 C 
ATOM     16  C   UNL     1      37.760 -23.755 -15.059  0.00  0.00    +0.003 C 
ATOM     17  C   UNL     1      35.922 -25.260 -14.931  0.00  0.00    +0.099 C 
ATOM     18  C   UNL     1      37.219 -24.934 -14.562  0.00  0.00    +0.021 C 
ENDBRANCH  12  14
ENDBRANCH   5  11
BRANCH   7  19
ATOM     19  S   UNL     1      35.258 -17.175 -23.154  0.00  0.00    -0.087 S 
BRANCH  19  20
ATOM     20  C   UNL     1      34.221 -15.919 -22.419  0.00  0.00    +0.034 C 
ATOM     21  C   UNL     1      33.470 -15.033 -23.195  0.00  0.00    +0.059 C 
ATOM     22  C   UNL     1      34.172 -15.834 -21.027  0.00  0.00    +0.007 C 
ATOM     23  C   UNL     1      32.673 -14.068 -22.579  0.00  0.00    +0.005 C 
ATOM     24  C   UNL     1      33.375 -14.869 -20.411  0.00  0.00    +0.001 C 
ATOM     25  C   UNL     1      32.625 -13.986 -21.188  0.00  0.00    +0.000 C 
BRANCH  21  28
ATOM     26  O   UNL     1      33.663 -16.147 -25.249  0.00  0.00    -0.270 OA
ATOM     27  N   UNL     1      33.257 -13.867 -25.320  0.00  0.00    -0.299 N 
ATOM     28  C   UNL     1      33.481 -15.074 -24.653  0.00  0.00    +0.246 C 
ATOM     29  C   UNL     1      33.214 -13.748 -26.760  0.00  0.00    +0.111 C 
ATOM     30  H   UNL     1      33.120 -13.054 -24.780  0.00  0.00    +0.150 HD
ENDBRANCH  21  28
ENDBRANCH  19  20
ENDBRANCH   7  19
TORSDOF 5
ENDMDL
MODEL 3
REMARK VINA RESULT:     -12.0      3.233      9.345
REMARK  Name = 6450551
REMARK  5 active torsions:
REMARK  status: ('A' for Active; 'I' for Inactive)
REMARK    1  A    between atoms: C_5  and  C_11
REMARK    2  A    between atoms: C_7  and  S_19
REMARK    3  A    between atoms: C_12  and  C_14
REMARK    4  A    between atoms: S_19  and  C_20
REMARK    5  A    between atoms: C_21  and  C_28
REMARK                            x       y       z     vdW  Elec       q    Type
REMARK                         _______ _______ _______ _____ _____    ______ ____
ROOT
ATOM      1  N   UNL     1      36.675 -19.860 -20.401  0.00  0.00    -0.276 N 
ATOM      2  N   UNL     1      36.421 -18.657 -20.944  0.00  0.00    -0.173 NA
ATOM      3  C   UNL     1      34.484 -19.768 -20.440  0.00  0.00    +0.036 A 
ATOM      4  C   UNL     1      35.554 -20.577 -20.077  0.00  0.00    +0.076 A 
ATOM      5  C   UNL     1      35.087 -18.604 -20.965  0.00  0.00    +0.102 A 
ATOM      6  C   UNL     1      35.393 -21.841 -19.506  0.00  0.00    +0.025 C 
ATOM      7  C   UNL     1      34.083 -22.284 -19.305  0.00  0.00    +0.031 C 
ATOM      8  C   UNL     1      33.172 -20.226 -20.231  0.00  0.00    +0.004 C 
ATOM      9  C   UNL     1      32.989 -21.491 -19.660  0.00  0.00    +0.007 C 
ATOM     10  H   UNL     1      37.587 -20.197 -20.251  0.00  0.00    +0.189 HD
ENDROOT
BRANCH   5  11
ATOM     11  C   UNL     1      34.369 -17.487 -21.467  0.00  0.00    +0.022 C 
ATOM     12  C   UNL     1      34.602 -16.169 -21.230  0.00  0.00    +0.021 C 
BRANCH  12  14
ATOM     13  N   UNL     1      34.035 -14.765 -23.067  0.00  0.00    -0.244 NA
ATOM     14  C   UNL     1      33.808 -15.053 -21.774  0.00  0.00    +0.081 C 
ATOM     15  C   UNL     1      32.919 -14.398 -20.956  0.00  0.00    +0.019 C 
ATOM     16  C   UNL     1      32.193 -13.351 -21.513  0.00  0.00    +0.003 C 
ATOM     17  C   UNL     1      33.313 -13.742 -23.575  0.00  0.00    +0.099 C 
ATOM     18  C   UNL     1      32.388 -13.010 -22.846  0.00  0.00    +0.021 C 
ENDBRANCH  12  14
ENDBRANCH   5  11
BRANCH   7  19
ATOM     19  S   UNL     1      33.805 -23.892 -18.579  0.00  0.00    -0.087 S 
BRANCH  19  20
ATOM     20  C   UNL     1      33.070 -23.442 -17.014  0.00  0.00    +0.034 C 
ATOM     21  C   UNL     1      33.825 -23.350 -15.842  0.00  0.00    +0.059 C 
ATOM     22  C   UNL     1      31.699 -23.180 -16.978  0.00  0.00    +0.007 C 
ATOM     23  C   UNL     1      33.210 -22.995 -14.641  0.00  0.00    +0.005 C 
ATOM     24  C   UNL     1      31.084 -22.825 -15.777  0.00  0.00    +0.001 C 
ATOM     25  C   UNL     1      31.841 -22.733 -14.608  0.00  0.00    +0.000 C 
BRANCH  21  28
ATOM     26  O   UNL     1      35.682 -24.768 -15.660  0.00  0.00    -0.270 OA
ATOM     27  N   UNL     1      36.104 -22.515 -16.004  0.00  0.00    -0.299 N 
ATOM     28  C   UNL     1      35.259 -23.612 -15.818  0.00  0.00    +0.246 C 
ATOM     29  C   UNL     1      37.546 -22.615 -16.030  0.00  0.00    +0.111 C 
ATOM     30  H   UNL     1      35.696 -21.626 -16.123  0.00  0.00    +0.150 HD
ENDBRANCH  21  28
ENDBRANCH  19  20
ENDBRANCH   7  19
TORSDOF 5
ENDMDL
MODEL 4
REMARK VINA RESULT:     -11.8      4.211      7.200
REMARK  Name = 6450551
REMARK  5 active torsions:
REMARK  status: ('A' for Active; 'I' for Inactive)
REMARK    1  A    between atoms: C_5  and  C_11
REMARK    2  A    between atoms: C_7  and  S_19
REMARK    3  A    between atoms: C_12  and  C_14
REMARK    4  A    between atoms: S_19  and  C_20
REMARK    5  A    between atoms: C_21  and  C_28
REMARK                            x       y       z     vdW  Elec       q    Type
REMARK                         _______ _______ _______ _____ _____    ______ ____
ROOT
ATOM      1  N   UNL     1      34.225 -15.826 -24.490  0.00  0.00    -0.276 N 
ATOM      2  N   UNL     1      34.703 -16.988 -24.014  0.00  0.00    -0.173 NA
ATOM      3  C   UNL     1      33.788 -15.718 -22.344  0.00  0.00    +0.036 A 
ATOM      4  C   UNL     1      33.664 -15.018 -23.538  0.00  0.00    +0.076 A 
ATOM      5  C   UNL     1      34.435 -16.920 -22.708  0.00  0.00    +0.102 A 
ATOM      6  C   UNL     1      33.068 -13.757 -23.623  0.00  0.00    +0.025 C 
ATOM      7  C   UNL     1      32.586 -13.203 -22.434  0.00  0.00    +0.031 C 
ATOM      8  C   UNL     1      33.298 -15.148 -21.157  0.00  0.00    +0.004 C 
ATOM      9  C   UNL     1      32.698 -13.885 -21.220  0.00  0.00    +0.007 C 
ATOM     10  H   UNL     1      34.276 -15.576 -25.441  0.00  0.00    +0.189 HD
ENDROOT
BRANCH   5  11
ATOM     11  C   UNL     1      34.772 -17.955 -21.797  0.00  0.00    +0.022 C 
ATOM     12  C   UNL     1      34.062 -19.077 -21.508  0.00  0.00    +0.021 C 
BRANCH  12  14
ATOM     13  N   UNL     1      35.779 -20.170 -20.274  0.00  0.00    -0.244 NA
ATOM     14  C   UNL     1      34.462 -20.113 -20.539  0.00  0.00    +0.081 C 
ATOM     15  C   UNL     1      33.501 -20.926 -19.987  0.00  0.00    +0.019 C 
ATOM     16  C   UNL     1      33.927 -21.889 -19.078  0.00  0.00    +0.003 C 
ATOM     17  C   UNL     1      36.156 -21.118 -19.387  0.00  0.00    +0.099 C 
ATOM     18  C   UNL     1      35.278 -21.993 -18.768  0.00  0.00    +0.021 C 
ENDBRANCH  12  14
ENDBRANCH   5  11
BRANCH   7  19
ATOM     19  S   UNL     1      31.813 -11.593 -22.470  0.00  0.00    -0.087 S 
BRANCH  19  20
ATOM     20  C   UNL     1      33.054 -10.634 -23.327  0.00  0.00    +0.034 C 
ATOM     21  C   UNL     1      33.203  -9.261 -23.116  0.00  0.00    +0.059 C 
ATOM     22  C   UNL     1      33.890 -11.292 -24.230  0.00  0.00    +0.007 C 
ATOM     23  C   UNL     1      34.185  -8.551 -23.806  0.00  0.00    +0.005 C 
ATOM     24  C   UNL     1      34.873 -10.582 -24.920  0.00  0.00    +0.001 C 
ATOM     25  C   UNL     1      35.020  -9.210 -24.708  0.00  0.00    +0.000 C 
BRANCH  21  28
ATOM     26  O   UNL     1      31.297  -8.008 -22.573  0.00  0.00    -0.270 OA
ATOM     27  N   UNL     1      32.794  -8.448 -20.860  0.00  0.00    -0.299 N 
ATOM     28  C   UNL     1      32.358  -8.521 -22.186  0.00  0.00    +0.246 C 
ATOM     29  C   UNL     1      32.057  -7.772 -19.815  0.00  0.00    +0.111 C 
ATOM     30  H   UNL     1      33.648  -8.880 -20.625  0.00  0.00    +0.150 HD
ENDBRANCH  21  28
ENDBRANCH  19  20
ENDBRANCH   7  19
TORSDOF 5
ENDMDL
MODEL 5
REMARK VINA RESULT:     -11.5      4.135      6.827
REMARK  Name = 6450551
REMARK  5 active torsions:
REMARK  status: ('A' for Active; 'I' for Inactive)
REMARK    1  A    between atoms: C_5  and  C_11
REMARK    2  A    between atoms: C_7  and  S_19
REMARK    3  A    between atoms: C_12  and  C_14
REMARK    4  A    between atoms: S_19  and  C_20
REMARK    5  A    between atoms: C_21  and  C_28
REMARK                            x       y       z     vdW  Elec       q    Type
REMARK                         _______ _______ _______ _____ _____    ______ ____
ROOT
ATOM      1  N   UNL     1      35.244 -15.725 -23.858  0.00  0.00    -0.276 N 
ATOM      2  N   UNL     1      35.494 -16.885 -23.227  0.00  0.00    -0.173 NA
ATOM      3  C   UNL     1      33.829 -15.711 -22.183  0.00  0.00    +0.036 A 
ATOM      4  C   UNL     1      34.255 -14.973 -23.281  0.00  0.00    +0.076 A 
ATOM      5  C   UNL     1      34.630 -16.873 -22.208  0.00  0.00    +0.102 A 
ATOM      6  C   UNL     1      33.709 -13.735 -23.625  0.00  0.00    +0.025 C 
ATOM      7  C   UNL     1      32.690 -13.242 -22.806  0.00  0.00    +0.031 C 
ATOM      8  C   UNL     1      32.802 -15.203 -21.369  0.00  0.00    +0.004 C 
ATOM      9  C   UNL     1      32.242 -13.962 -21.696  0.00  0.00    +0.007 C 
ATOM     10  H   UNL     1      35.730 -15.440 -24.665  0.00  0.00    +0.189 HD
ENDROOT
BRANCH   5  11
ATOM     11  C   UNL     1      34.543 -17.926 -21.261  0.00  0.00    +0.022 C 
ATOM     12  C   UNL     1      34.772 -19.251 -21.462  0.00  0.00    +0.021 C 
BRANCH  12  14
ATOM     13  N   UNL     1      35.809 -20.685 -19.869  0.00  0.00    -0.244 NA
ATOM     14  C   UNL     1      34.652 -20.301 -20.434  0.00  0.00    +0.081 C 
ATOM     15  C   UNL     1      33.410 -20.806 -20.130  0.00  0.00    +0.019 C 
ATOM     16  C   UNL     1      33.346 -21.796 -19.155  0.00  0.00    +0.003 C 
ATOM     17  C   UNL     1      35.709 -21.648 -18.927  0.00  0.00    +0.099 C 
ATOM     18  C   UNL     1      34.513 -22.231 -18.538  0.00  0.00    +0.021 C 
ENDBRANCH  12  14
ENDBRANCH   5  11
BRANCH   7  19
ATOM     19  S   UNL     1      31.948 -11.663 -23.187  0.00  0.00    -0.087 S 
BRANCH  19  20
ATOM     20  C   UNL     1      31.880 -10.913 -21.567  0.00  0.00    +0.034 C 
ATOM     21  C   UNL     1      32.124  -9.551 -21.371  0.00  0.00    +0.059 C 
ATOM     22  C   UNL     1      31.573 -11.726 -20.474  0.00  0.00    +0.007 C 
ATOM     23  C   UNL     1      32.060  -9.008 -20.088  0.00  0.00    +0.005 C 
ATOM     24  C   UNL     1      31.509 -11.182 -19.191  0.00  0.00    +0.001 C 
ATOM     25  C   UNL     1      31.753  -9.822 -18.999  0.00  0.00    +0.000 C 
BRANCH  21  28
ATOM     26  O   UNL     1      31.545  -8.155 -23.163  0.00  0.00    -0.270 OA
ATOM     27  N   UNL     1      33.802  -8.376 -22.683  0.00  0.00    -0.299 N 
ATOM     28  C   UNL     1      32.449  -8.653 -22.473  0.00  0.00    +0.246 C 
ATOM     29  C   UNL     1      34.282  -7.488 -23.718  0.00  0.00    +0.111 C 
ATOM     30  H   UNL     1      34.464  -8.808 -22.095  0.00  0.00    +0.150 HD
ENDBRANCH  21  28
ENDBRANCH  19  20
ENDBRANCH   7  19
TORSDOF 5
ENDMDL
MODEL 6
REMARK VINA RESULT:     -11.4      3.968      7.004
REMARK  Name = 6450551
REMARK  5 active torsions:
REMARK  status: ('A' for Active; 'I' for Inactive)
REMARK    1  A    between atoms: C_5  and  C_11
REMARK    2  A    between atoms: C_7  and  S_19
REMARK    3  A    between atoms: C_12  and  C_14
REMARK    4  A    between atoms: S_19  and  C_20
REMARK    5  A    between atoms: C_21  and  C_28
REMARK                            x       y       z     vdW  Elec       q    Type
REMARK                         _______ _______ _______ _____ _____    ______ ____
ROOT
ATOM      1  N   UNL     1      33.765 -16.874 -25.795  0.00  0.00    -0.276 N 
ATOM      2  N   UNL     1      34.106 -18.045 -25.229  0.00  0.00    -0.173 NA
ATOM      3  C   UNL     1      34.321 -16.312 -23.750  0.00  0.00    +0.036 A 
ATOM      4  C   UNL     1      33.873 -15.795 -24.960  0.00  0.00    +0.076 A 
ATOM      5  C   UNL     1      34.443 -17.698 -23.985  0.00  0.00    +0.102 A 
ATOM      6  C   UNL     1      33.619 -14.436 -25.160  0.00  0.00    +0.025 C 
ATOM      7  C   UNL     1      33.836 -13.584 -24.073  0.00  0.00    +0.031 C 
ATOM      8  C   UNL     1      34.535 -15.442 -22.667  0.00  0.00    +0.004 C 
ATOM      9  C   UNL     1      34.286 -14.076 -22.847  0.00  0.00    +0.007 C 
ATOM     10  H   UNL     1      33.465 -16.799 -26.729  0.00  0.00    +0.189 HD
ENDROOT
BRANCH   5  11
ATOM     11  C   UNL     1      34.877 -18.639 -23.014  0.00  0.00    +0.022 C 
ATOM     12  C   UNL     1      34.286 -18.951 -21.830  0.00  0.00    +0.021 C 
BRANCH  12  14
ATOM     13  N   UNL     1      33.857 -20.690 -20.263  0.00  0.00    -0.244 NA
ATOM     14  C   UNL     1      34.795 -19.933 -20.856  0.00  0.00    +0.081 C 
ATOM     15  C   UNL     1      36.148 -20.009 -20.622  0.00  0.00    +0.019 C 
ATOM     16  C   UNL     1      36.582 -20.950 -19.695  0.00  0.00    +0.003 C 
ATOM     17  C   UNL     1      34.315 -21.593 -19.368  0.00  0.00    +0.099 C 
ATOM     18  C   UNL     1      35.654 -21.761 -19.051  0.00  0.00    +0.021 C 
ENDBRANCH  12  14
ENDBRANCH   5  11
BRANCH   7  19
ATOM     19  S   UNL     1      33.531 -11.834 -24.261  0.00  0.00    -0.087 S 
BRANCH  19  20
ATOM     20  C   UNL     1      32.581 -11.489 -22.787  0.00  0.00    +0.034 C 
ATOM     21  C   UNL     1      32.240 -10.187 -22.415  0.00  0.00    +0.059 C 
ATOM     22  C   UNL     1      32.176 -12.565 -21.995  0.00  0.00    +0.007 C 
ATOM     23  C   UNL     1      31.496  -9.964 -21.256  0.00  0.00    +0.005 C 
ATOM     24  C   UNL     1      31.433 -12.342 -20.836  0.00  0.00    +0.001 C 
ATOM     25  C   UNL     1      31.093 -11.040 -20.467  0.00  0.00    +0.000 C 
BRANCH  21  28
ATOM     26  O   UNL     1      31.822  -8.480 -23.966  0.00  0.00    -0.270 OA
ATOM     27  N   UNL     1      33.941  -8.560 -23.029  0.00  0.00    -0.299 N 
ATOM     28  C   UNL     1      32.634  -9.025 -23.202  0.00  0.00    +0.246 C 
ATOM     29  C   UNL     1      34.473  -7.405 -23.719  0.00  0.00    +0.111 C 
ATOM     30  H   UNL     1      34.530  -9.043 -22.405  0.00  0.00    +0.150 HD
ENDBRANCH  21  28
ENDBRANCH  19  20
ENDBRANCH   7  19
TORSDOF 5
ENDMDL
MODEL 7
REMARK VINA RESULT:     -11.2      3.242     10.199
REMARK  Name = 6450551
REMARK  5 active torsions:
REMARK  status: ('A' for Active; 'I' for Inactive)
REMARK    1  A    between atoms: C_5  and  C_11
REMARK    2  A    between atoms: C_7  and  S_19
REMARK    3  A    between atoms: C_12  and  C_14
REMARK    4  A    between atoms: S_19  and  C_20
REMARK    5  A    between atoms: C_21  and  C_28
REMARK                            x       y       z     vdW  Elec       q    Type
REMARK                         _______ _______ _______ _____ _____    ______ ____
ROOT
ATOM      1  N   UNL     1      34.429 -16.718 -25.286  0.00  0.00    -0.276 N 
ATOM      2  N   UNL     1      33.806 -15.550 -25.523  0.00  0.00    -0.173 NA
ATOM      3  C   UNL     1      34.278 -15.805 -23.298  0.00  0.00    +0.036 A 
ATOM      4  C   UNL     1      34.739 -16.932 -23.970  0.00  0.00    +0.076 A 
ATOM      5  C   UNL     1      33.716 -14.998 -24.311  0.00  0.00    +0.102 A 
ATOM      6  C   UNL     1      35.373 -17.996 -23.326  0.00  0.00    +0.025 C 
ATOM      7  C   UNL     1      35.536 -17.893 -21.941  0.00  0.00    +0.031 C 
ATOM      8  C   UNL     1      34.449 -15.716 -21.906  0.00  0.00    +0.004 C 
ATOM      9  C   UNL     1      35.082 -16.773 -21.241  0.00  0.00    +0.007 C 
ATOM     10  H   UNL     1      34.643 -17.364 -25.998  0.00  0.00    +0.189 HD
ENDROOT
BRANCH   5  11
ATOM     11  C   UNL     1      33.116 -13.732 -24.084  0.00  0.00    +0.022 C 
ATOM     12  C   UNL     1      33.691 -12.618 -23.558  0.00  0.00    +0.021 C 
BRANCH  12  14
ATOM     13  N   UNL     1      31.944 -11.382 -22.515  0.00  0.00    -0.244 NA
ATOM     14  C   UNL     1      33.007 -11.331 -23.336  0.00  0.00    +0.081 C 
ATOM     15  C   UNL     1      33.479 -10.201 -23.961  0.00  0.00    +0.019 C 
ATOM     16  C   UNL     1      32.801  -9.011 -23.722  0.00  0.00    +0.003 C 
ATOM     17  C   UNL     1      31.309 -10.207 -22.306  0.00  0.00    +0.099 C 
ATOM     18  C   UNL     1      31.694  -9.005 -22.881  0.00  0.00    +0.021 C 
ENDBRANCH  12  14
ENDBRANCH   5  11
BRANCH   7  19
ATOM     19  S   UNL     1      36.338 -19.220 -21.055  0.00  0.00    -0.087 S 
BRANCH  19  20
ATOM     20  C   UNL     1      34.927 -20.133 -20.448  0.00  0.00    +0.034 C 
ATOM     21  C   UNL     1      35.057 -21.155 -19.505  0.00  0.00    +0.059 C 
ATOM     22  C   UNL     1      33.664 -19.803 -20.943  0.00  0.00    +0.007 C 
ATOM     23  C   UNL     1      33.928 -21.843 -19.060  0.00  0.00    +0.005 C 
ATOM     24  C   UNL     1      32.535 -20.490 -20.497  0.00  0.00    +0.001 C 
ATOM     25  C   UNL     1      32.668 -21.511 -19.555  0.00  0.00    +0.000 C 
BRANCH  21  28
ATOM     26  O   UNL     1      37.335 -21.677 -19.697  0.00  0.00    -0.270 OA
ATOM     27  N   UNL     1      36.416 -21.728 -17.570  0.00  0.00    -0.299 N 
ATOM     28  C   UNL     1      36.350 -21.544 -18.954  0.00  0.00    +0.246 C 
ATOM     29  C   UNL     1      37.629 -22.090 -16.871  0.00  0.00    +0.111 C 
ATOM     30  H   UNL     1      35.593 -21.604 -17.043  0.00  0.00    +0.150 HD
ENDBRANCH  21  28
ENDBRANCH  19  20
ENDBRANCH   7  19
TORSDOF 5
ENDMDL
MODEL 8
REMARK VINA RESULT:     -11.2      2.530      3.169
REMARK  Name = 6450551
REMARK  5 active torsions:
REMARK  status: ('A' for Active; 'I' for Inactive)
REMARK    1  A    between atoms: C_5  and  C_11
REMARK    2  A    between atoms: C_7  and  S_19
REMARK    3  A    between atoms: C_12  and  C_14
REMARK    4  A    between atoms: S_19  and  C_20
REMARK    5  A    between atoms: C_21  and  C_28
REMARK                            x       y       z     vdW  Elec       q    Type
REMARK                         _______ _______ _______ _____ _____    ______ ____
ROOT
ATOM      1  N   UNL     1      32.762 -21.382 -19.768  0.00  0.00    -0.276 N 
ATOM      2  N   UNL     1      32.714 -22.271 -18.761  0.00  0.00    -0.173 NA
ATOM      3  C   UNL     1      34.843 -21.495 -19.085  0.00  0.00    +0.036 A 
ATOM      4  C   UNL     1      34.012 -20.879 -20.014  0.00  0.00    +0.076 A 
ATOM      5  C   UNL     1      33.982 -22.336 -18.347  0.00  0.00    +0.102 A 
ATOM      6  C   UNL     1      34.473 -19.954 -20.952  0.00  0.00    +0.025 C 
ATOM      7  C   UNL     1      35.839 -19.655 -20.930  0.00  0.00    +0.031 C 
ATOM      8  C   UNL     1      36.213 -21.184 -19.075  0.00  0.00    +0.004 C 
ATOM      9  C   UNL     1      36.696 -20.259 -20.008  0.00  0.00    +0.007 C 
ATOM     10  H   UNL     1      31.968 -21.117 -20.286  0.00  0.00    +0.189 HD
ENDROOT
BRANCH   5  11
ATOM     11  C   UNL     1      34.400 -23.170 -17.278  0.00  0.00    +0.022 C 
ATOM     12  C   UNL     1      35.236 -22.856 -16.252  0.00  0.00    +0.021 C 
BRANCH  12  14
ATOM     13  N   UNL     1      36.598 -24.661 -15.507  0.00  0.00    -0.244 NA
ATOM     14  C   UNL     1      35.643 -23.776 -15.174  0.00  0.00    +0.081 C 
ATOM     15  C   UNL     1      35.042 -23.676 -13.942  0.00  0.00    +0.019 C 
ATOM     16  C   UNL     1      35.458 -24.564 -12.956  0.00  0.00    +0.003 C 
ATOM     17  C   UNL     1      36.977 -25.508 -14.525  0.00  0.00    +0.099 C 
ATOM     18  C   UNL     1      36.443 -25.502 -13.245  0.00  0.00    +0.021 C 
ENDBRANCH  12  14
ENDBRANCH   5  11
BRANCH   7  19
ATOM     19  S   UNL     1      36.496 -18.481 -22.104  0.00  0.00    -0.087 S 
BRANCH  19  20
ATOM     20  C   UNL     1      35.267 -17.185 -22.021  0.00  0.00    +0.034 C 
ATOM     21  C   UNL     1      34.484 -16.837 -23.123  0.00  0.00    +0.059 C 
ATOM     22  C   UNL     1      35.099 -16.511 -20.810  0.00  0.00    +0.007 C 
ATOM     23  C   UNL     1      33.536 -15.819 -23.013  0.00  0.00    +0.005 C 
ATOM     24  C   UNL     1      34.152 -15.493 -20.700  0.00  0.00    +0.001 C 
ATOM     25  C   UNL     1      33.370 -15.147 -21.803  0.00  0.00    +0.000 C 
BRANCH  21  28
ATOM     26  O   UNL     1      34.938 -16.861 -25.423  0.00  0.00    -0.270 OA
ATOM     27  N   UNL     1      34.384 -18.883 -24.435  0.00  0.00    -0.299 N 
ATOM     28  C   UNL     1      34.615 -17.505 -24.413  0.00  0.00    +0.246 C 
ATOM     29  C   UNL     1      34.498 -19.691 -25.629  0.00  0.00    +0.111 C 
ATOM     30  H   UNL     1      34.131 -19.328 -23.593  0.00  0.00    +0.150 HD
ENDBRANCH  21  28
ENDBRANCH  19  20
ENDBRANCH   7  19
TORSDOF 5
ENDMDL
MODEL 9
REMARK VINA RESULT:     -11.1      3.088      9.888
REMARK  Name = 6450551
REMARK  5 active torsions:
REMARK  status: ('A' for Active; 'I' for Inactive)
REMARK    1  A    between atoms: C_5  and  C_11
REMARK    2  A    between atoms: C_7  and  S_19
REMARK    3  A    between atoms: C_12  and  C_14
REMARK    4  A    between atoms: S_19  and  C_20
REMARK    5  A    between atoms: C_21  and  C_28
REMARK                            x       y       z     vdW  Elec       q    Type
REMARK                         _______ _______ _______ _____ _____    ______ ____
ROOT
ATOM      1  N   UNL     1      36.823 -19.626 -20.927  0.00  0.00    -0.276 N 
ATOM      2  N   UNL     1      36.670 -18.531 -21.691  0.00  0.00    -0.173 NA
ATOM      3  C   UNL     1      34.649 -19.345 -20.990  0.00  0.00    +0.036 A 
ATOM      4  C   UNL     1      35.648 -20.164 -20.475  0.00  0.00    +0.076 A 
ATOM      5  C   UNL     1      35.346 -18.363 -21.727  0.00  0.00    +0.102 A 
ATOM      6  C   UNL     1      35.382 -21.275 -19.672  0.00  0.00    +0.025 C 
ATOM      7  C   UNL     1      34.041 -21.550 -19.393  0.00  0.00    +0.031 C 
ATOM      8  C   UNL     1      33.305 -19.634 -20.700  0.00  0.00    +0.004 C 
ATOM      9  C   UNL     1      33.017 -20.745 -19.897  0.00  0.00    +0.007 C 
ATOM     10  H   UNL     1      37.704 -20.010 -20.713  0.00  0.00    +0.189 HD
ENDROOT
BRANCH   5  11
ATOM     11  C   UNL     1      34.723 -17.303 -22.436  0.00  0.00    +0.022 C 
ATOM     12  C   UNL     1      34.766 -17.052 -23.771  0.00  0.00    +0.021 C 
BRANCH  12  14
ATOM     13  N   UNL     1      33.692 -16.168 -25.703  0.00  0.00    -0.244 NA
ATOM     14  C   UNL     1      34.105 -15.922 -24.448  0.00  0.00    +0.081 C 
ATOM     15  C   UNL     1      33.958 -14.730 -23.779  0.00  0.00    +0.019 C 
ATOM     16  C   UNL     1      33.329 -13.692 -24.457  0.00  0.00    +0.003 C 
ATOM     17  C   UNL     1      33.085 -15.137 -26.331  0.00  0.00    +0.099 C 
ATOM     18  C   UNL     1      32.882 -13.891 -25.759  0.00  0.00    +0.021 C 
ENDBRANCH  12  14
ENDBRANCH   5  11
BRANCH   7  19
ATOM     19  S   UNL     1      33.631 -22.958 -18.373  0.00  0.00    -0.087 S 
BRANCH  19  20
ATOM     20  C   UNL     1      34.819 -22.783 -17.050  0.00  0.00    +0.034 C 
ATOM     21  C   UNL     1      34.497 -23.079 -15.723  0.00  0.00    +0.059 C 
ATOM     22  C   UNL     1      36.102 -22.335 -17.369  0.00  0.00    +0.007 C 
ATOM     23  C   UNL     1      35.456 -22.928 -14.721  0.00  0.00    +0.005 C 
ATOM     24  C   UNL     1      37.061 -22.185 -16.367  0.00  0.00    +0.001 C 
ATOM     25  C   UNL     1      36.737 -22.481 -15.043  0.00  0.00    +0.000 C 
BRANCH  21  28
ATOM     26  O   UNL     1      32.161 -23.131 -15.913  0.00  0.00    -0.270 OA
ATOM     27  N   UNL     1      33.120 -24.494 -14.302  0.00  0.00    -0.299 N 
ATOM     28  C   UNL     1      33.174 -23.549 -15.331  0.00  0.00    +0.246 C 
ATOM     29  C   UNL     1      31.887 -25.074 -13.817  0.00  0.00    +0.111 C 
ATOM     30  H   UNL     1      33.966 -24.780 -13.886  0.00  0.00    +0.150 HD
ENDBRANCH  21  28
ENDBRANCH  19  20
ENDBRANCH   7  19
TORSDOF 5
ENDMDL
