MODEL 1
REMARK VINA RESULT:     -10.0      0.000      0.000
REMARK  Name = 11688894
REMARK  7 active torsions:
REMARK  status: ('A' for Active; 'I' for Inactive)
REMARK    1  A    between atoms: N_1  and  C_4
REMARK    2  A    between atoms: N_1  and  C_17
REMARK    3  A    between atoms: C_5  and  C_13
REMARK    4  A    between atoms: C_13  and  O_14
REMARK    5  A    between atoms: O_14  and  C_15
REMARK    6  A    between atoms: C_17  and  C_21
REMARK    7  A    between atoms: C_22  and  C_27
REMARK                            x       y       z     vdW  Elec       q    Type
REMARK                         _______ _______ _______ _____ _____    ______ ____
ROOT
ATOM      1  N   UNL     1      32.693 -24.620 -13.613  0.00  0.00    +0.392 N 
ATOM      2  H   UNL     1      32.669 -25.636 -13.529  0.00  0.00    -0.084 HD
ATOM      3  H   UNL     1      32.582 -24.184 -12.698  0.00  0.00    -0.084 HD
ENDROOT
BRANCH   1   4
ATOM      4  C   UNL     1      31.595 -24.185 -14.473  0.00  0.00    -0.045 C 
ATOM      5  C   UNL     1      29.642 -23.391 -16.005  0.00  0.00    +0.089 C 
ATOM      6  C   UNL     1      32.146 -23.640 -15.806  0.00  0.00    -0.019 C 
ATOM      7  C   UNL     1      30.790 -23.065 -13.780  0.00  0.00    -0.019 C 
ATOM      8  C   UNL     1      30.639 -25.360 -14.778  0.00  0.00    -0.019 C 
ATOM      9  C   UNL     1      30.994 -23.175 -16.709  0.00  0.00    +0.009 C 
ATOM     10  C   UNL     1      29.640 -22.599 -14.686  0.00  0.00    +0.009 C 
ATOM     11  C   UNL     1      29.489 -24.889 -15.681  0.00  0.00    +0.009 C 
BRANCH   5  13
ATOM     12  O   UNL     1      28.190 -23.510 -17.925  0.00  0.00    -0.250 OA
ATOM     13  C   UNL     1      28.512 -22.947 -16.887  0.00  0.00    +0.316 C 
BRANCH  13  14
ATOM     14  O   UNL     1      27.925 -21.839 -16.352  0.00  0.00    -0.449 OA
BRANCH  14  15
ATOM     15  C   UNL     1      26.494 -21.826 -16.381  0.00  0.00    +0.209 C 
ATOM     16  C   UNL     1      26.033 -21.101 -17.627  0.00  0.00    +0.051 C 
ENDBRANCH  14  15
ENDBRANCH  13  14
ENDBRANCH   5  13
ENDBRANCH   1   4
BRANCH   1  17
ATOM     17  C   UNL     1      33.976 -24.218 -14.170  0.00  0.00    +0.006 C 
BRANCH  17  21
ATOM     18  F   UNL     1      38.823 -24.353 -14.855  0.00  0.00    -0.235 F 
ATOM     19  O   UNL     1      34.684 -23.961 -11.911  0.00  0.00    -0.277 OA
ATOM     20  N   UNL     1      36.239 -24.780 -13.418  0.00  0.00    -0.267 N 
ATOM     21  C   UNL     1      34.987 -24.305 -13.055  0.00  0.00    +0.205 C 
ATOM     22  C   UNL     1      37.303 -25.019 -12.442  0.00  0.00    +0.170 C 
ATOM     23  C   UNL     1      36.641 -25.198 -14.761  0.00  0.00    +0.129 C 
ATOM     24  C   UNL     1      38.291 -25.921 -13.187  0.00  0.00    +0.073 C 
ATOM     25  C   UNL     1      38.124 -25.500 -14.641  0.00  0.00    +0.183 C 
BRANCH  22  27
ATOM     26  N   UNL     1      38.415 -22.754 -11.694  0.00  0.00    -0.194 NA
ATOM     27  C   UNL     1      37.925 -23.753 -12.025  0.00  0.00    +0.093 C 
ENDBRANCH  22  27
ENDBRANCH  17  21
ENDBRANCH   1  17
TORSDOF 7
ENDMDL
MODEL 2
REMARK VINA RESULT:      -9.1      1.521      2.475
REMARK  Name = 11688894
REMARK  7 active torsions:
REMARK  status: ('A' for Active; 'I' for Inactive)
REMARK    1  A    between atoms: N_1  and  C_4
REMARK    2  A    between atoms: N_1  and  C_17
REMARK    3  A    between atoms: C_5  and  C_13
REMARK    4  A    between atoms: C_13  and  O_14
REMARK    5  A    between atoms: O_14  and  C_15
REMARK    6  A    between atoms: C_17  and  C_21
REMARK    7  A    between atoms: C_22  and  C_27
REMARK                            x       y       z     vdW  Elec       q    Type
REMARK                         _______ _______ _______ _____ _____    ______ ____
ROOT
ATOM      1  N   UNL     1      32.888 -24.355 -14.044  0.00  0.00    +0.392 N 
ATOM      2  H   UNL     1      33.274 -25.231 -14.395  0.00  0.00    -0.084 HD
ATOM      3  H   UNL     1      32.654 -24.441 -13.055  0.00  0.00    -0.084 HD
ENDROOT
BRANCH   1   4
ATOM      4  C   UNL     1      31.671 -24.037 -14.786  0.00  0.00    -0.045 C 
ATOM      5  C   UNL     1      29.489 -23.476 -16.094  0.00  0.00    +0.089 C 
ATOM      6  C   UNL     1      30.857 -22.962 -14.036  0.00  0.00    -0.019 C 
ATOM      7  C   UNL     1      30.796 -25.299 -14.937  0.00  0.00    -0.019 C 
ATOM      8  C   UNL     1      32.011 -23.503 -16.195  0.00  0.00    -0.019 C 
ATOM      9  C   UNL     1      29.572 -22.631 -14.810  0.00  0.00    +0.009 C 
ATOM     10  C   UNL     1      29.510 -24.966 -15.709  0.00  0.00    +0.009 C 
ATOM     11  C   UNL     1      30.723 -23.173 -16.964  0.00  0.00    +0.009 C 
BRANCH   5  13
ATOM     12  O   UNL     1      27.702 -23.911 -17.652  0.00  0.00    -0.250 OA
ATOM     13  C   UNL     1      28.239 -23.149 -16.860  0.00  0.00    +0.316 C 
BRANCH  13  14
ATOM     14  O   UNL     1      27.819 -21.894 -16.532  0.00  0.00    -0.449 OA
BRANCH  14  15
ATOM     15  C   UNL     1      26.401 -21.707 -16.506  0.00  0.00    +0.209 C 
ATOM     16  C   UNL     1      25.967 -21.044 -17.796  0.00  0.00    +0.051 C 
ENDBRANCH  14  15
ENDBRANCH  13  14
ENDBRANCH   5  13
ENDBRANCH   1   4
BRANCH   1  17
ATOM     17  C   UNL     1      33.880 -23.302 -14.198  0.00  0.00    +0.006 C 
BRANCH  17  21
ATOM     18  F   UNL     1      36.950 -26.622 -12.320  0.00  0.00    -0.235 F 
ATOM     19  O   UNL     1      35.067 -23.881 -16.179  0.00  0.00    -0.277 OA
ATOM     20  N   UNL     1      36.044 -24.449 -14.158  0.00  0.00    -0.267 N 
ATOM     21  C   UNL     1      35.045 -23.898 -14.946  0.00  0.00    +0.205 C 
ATOM     22  C   UNL     1      37.287 -24.979 -14.720  0.00  0.00    +0.170 C 
ATOM     23  C   UNL     1      36.058 -24.490 -12.696  0.00  0.00    +0.129 C 
ATOM     24  C   UNL     1      38.231 -25.058 -13.518  0.00  0.00    +0.073 C 
ATOM     25  C   UNL     1      37.290 -25.306 -12.346  0.00  0.00    +0.183 C 
BRANCH  22  27
ATOM     26  N   UNL     1      36.891 -27.342 -15.810  0.00  0.00    -0.194 NA
ATOM     27  C   UNL     1      37.065 -26.299 -15.330  0.00  0.00    +0.093 C 
ENDBRANCH  22  27
ENDBRANCH  17  21
ENDBRANCH   1  17
TORSDOF 7
ENDMDL
MODEL 3
REMARK VINA RESULT:      -8.4     15.351     17.289
REMARK  Name = 11688894
REMARK  7 active torsions:
REMARK  status: ('A' for Active; 'I' for Inactive)
REMARK    1  A    between atoms: N_1  and  C_4
REMARK    2  A    between atoms: N_1  and  C_17
REMARK    3  A    between atoms: C_5  and  C_13
REMARK    4  A    between atoms: C_13  and  O_14
REMARK    5  A    between atoms: O_14  and  C_15
REMARK    6  A    between atoms: C_17  and  C_21
REMARK    7  A    between atoms: C_22  and  C_27
REMARK                            x       y       z     vdW  Elec       q    Type
REMARK                         _______ _______ _______ _____ _____    ______ ____
ROOT
ATOM      1  N   UNL     1      32.527  -9.903 -21.764  0.00  0.00    +0.392 N 
ATOM      2  H   UNL     1      32.164  -9.907 -20.811  0.00  0.00    -0.084 HD
ATOM      3  H   UNL     1      33.527 -10.103 -21.765  0.00  0.00    -0.084 HD
ENDROOT
BRANCH   1   4
ATOM      4  C   UNL     1      32.314  -8.583 -22.352  0.00  0.00    -0.045 C 
ATOM      5  C   UNL     1      31.950  -6.220 -23.389  0.00  0.00    +0.089 C 
ATOM      6  C   UNL     1      33.588  -8.117 -23.087  0.00  0.00    -0.019 C 
ATOM      7  C   UNL     1      31.983  -7.557 -21.248  0.00  0.00    -0.019 C 
ATOM      8  C   UNL     1      31.146  -8.613 -23.362  0.00  0.00    -0.019 C 
ATOM      9  C   UNL     1      33.371  -6.726 -23.700  0.00  0.00    +0.009 C 
ATOM     10  C   UNL     1      31.768  -6.165 -21.861  0.00  0.00    +0.009 C 
ATOM     11  C   UNL     1      30.933  -7.219 -23.971  0.00  0.00    +0.009 C 
BRANCH   5  13
ATOM     12  O   UNL     1      31.737  -3.820 -23.355  0.00  0.00    -0.250 OA
ATOM     13  C   UNL     1      31.729  -4.864 -23.993  0.00  0.00    +0.316 C 
BRANCH  13  14
ATOM     14  O   UNL     1      31.522  -4.992 -25.334  0.00  0.00    -0.449 OA
BRANCH  14  15
ATOM     15  C   UNL     1      32.286  -4.109 -26.162  0.00  0.00    +0.209 C 
ATOM     16  C   UNL     1      33.359  -4.906 -26.873  0.00  0.00    +0.051 C 
ENDBRANCH  14  15
ENDBRANCH  13  14
ENDBRANCH   5  13
ENDBRANCH   1   4
BRANCH   1  17
ATOM     17  C   UNL     1      31.846 -10.930 -22.538  0.00  0.00    +0.006 C 
BRANCH  17  21
ATOM     18  F   UNL     1      32.113 -15.696 -21.443  0.00  0.00    -0.235 F 
ATOM     19  O   UNL     1      33.530 -11.580 -24.090  0.00  0.00    -0.277 OA
ATOM     20  N   UNL     1      33.105 -13.021 -22.328  0.00  0.00    -0.267 N 
ATOM     21  C   UNL     1      32.906 -11.863 -23.065  0.00  0.00    +0.205 C 
ATOM     22  C   UNL     1      34.162 -13.983 -22.645  0.00  0.00    +0.170 C 
ATOM     23  C   UNL     1      32.390 -13.395 -21.108  0.00  0.00    +0.129 C 
ATOM     24  C   UNL     1      34.293 -14.820 -21.370  0.00  0.00    +0.073 C 
ATOM     25  C   UNL     1      32.887 -14.792 -20.784  0.00  0.00    +0.183 C 
BRANCH  22  27
ATOM     26  N   UNL     1      33.494 -15.457 -24.721  0.00  0.00    -0.194 NA
ATOM     27  C   UNL     1      33.789 -14.807 -23.805  0.00  0.00    +0.093 C 
ENDBRANCH  22  27
ENDBRANCH  17  21
ENDBRANCH   1  17
TORSDOF 7
ENDMDL
MODEL 4
REMARK VINA RESULT:      -8.3     15.638     17.609
REMARK  Name = 11688894
REMARK  7 active torsions:
REMARK  status: ('A' for Active; 'I' for Inactive)
REMARK    1  A    between atoms: N_1  and  C_4
REMARK    2  A    between atoms: N_1  and  C_17
REMARK    3  A    between atoms: C_5  and  C_13
REMARK    4  A    between atoms: C_13  and  O_14
REMARK    5  A    between atoms: O_14  and  C_15
REMARK    6  A    between atoms: C_17  and  C_21
REMARK    7  A    between atoms: C_22  and  C_27
REMARK                            x       y       z     vdW  Elec       q    Type
REMARK                         _______ _______ _______ _____ _____    ______ ____
ROOT
ATOM      1  N   UNL     1      32.601  -9.625 -21.955  0.00  0.00    +0.392 N 
ATOM      2  H   UNL     1      32.262  -9.541 -20.996  0.00  0.00    -0.084 HD
ATOM      3  H   UNL     1      33.596  -9.851 -21.962  0.00  0.00    -0.084 HD
ENDROOT
BRANCH   1   4
ATOM      4  C   UNL     1      32.407  -8.351 -22.643  0.00  0.00    -0.045 C 
ATOM      5  C   UNL     1      32.043  -6.079 -23.865  0.00  0.00    +0.089 C 
ATOM      6  C   UNL     1      32.143  -7.228 -21.619  0.00  0.00    -0.019 C 
ATOM      7  C   UNL     1      31.197  -8.442 -23.596  0.00  0.00    -0.019 C 
ATOM      8  C   UNL     1      33.657  -7.979 -23.471  0.00  0.00    -0.019 C 
ATOM      9  C   UNL     1      31.931  -5.889 -22.341  0.00  0.00    +0.009 C 
ATOM     10  C   UNL     1      30.984  -7.100 -24.315  0.00  0.00    +0.009 C 
ATOM     11  C   UNL     1      33.440  -6.639 -24.190  0.00  0.00    +0.009 C 
BRANCH   5  13
ATOM     12  O   UNL     1      32.501  -4.411 -25.543  0.00  0.00    -0.250 OA
ATOM     13  C   UNL     1      31.846  -4.770 -24.574  0.00  0.00    +0.316 C 
BRANCH  13  14
ATOM     14  O   UNL     1      30.843  -4.072 -23.971  0.00  0.00    -0.449 OA
BRANCH  14  15
ATOM     15  C   UNL     1      30.873  -2.655 -24.172  0.00  0.00    +0.209 C 
ATOM     16  C   UNL     1      31.810  -2.033 -23.158  0.00  0.00    +0.051 C 
ENDBRANCH  14  15
ENDBRANCH  13  14
ENDBRANCH   5  13
ENDBRANCH   1   4
BRANCH   1  17
ATOM     17  C   UNL     1      31.875 -10.692 -22.626  0.00  0.00    +0.006 C 
BRANCH  17  21
ATOM     18  F   UNL     1      32.033 -15.467 -21.550  0.00  0.00    -0.235 F 
ATOM     19  O   UNL     1      33.517 -11.381 -24.206  0.00  0.00    -0.277 OA
ATOM     20  N   UNL     1      33.082 -12.816 -22.442  0.00  0.00    -0.267 N 
ATOM     21  C   UNL     1      32.902 -11.651 -23.172  0.00  0.00    +0.205 C 
ATOM     22  C   UNL     1      34.108 -13.804 -22.778  0.00  0.00    +0.170 C 
ATOM     23  C   UNL     1      32.375 -13.175 -21.212  0.00  0.00    +0.129 C 
ATOM     24  C   UNL     1      34.236 -14.649 -21.508  0.00  0.00    +0.073 C 
ATOM     25  C   UNL     1      32.841 -14.586 -20.900  0.00  0.00    +0.183 C 
BRANCH  22  27
ATOM     26  N   UNL     1      33.369 -15.253 -24.848  0.00  0.00    -0.194 NA
ATOM     27  C   UNL     1      33.695 -14.615 -23.935  0.00  0.00    +0.093 C 
ENDBRANCH  22  27
ENDBRANCH  17  21
ENDBRANCH   1  17
TORSDOF 7
ENDMDL
MODEL 5
REMARK VINA RESULT:      -8.3     12.465     14.708
REMARK  Name = 11688894
REMARK  7 active torsions:
REMARK  status: ('A' for Active; 'I' for Inactive)
REMARK    1  A    between atoms: N_1  and  C_4
REMARK    2  A    between atoms: N_1  and  C_17
REMARK    3  A    between atoms: C_5  and  C_13
REMARK    4  A    between atoms: C_13  and  O_14
REMARK    5  A    between atoms: O_14  and  C_15
REMARK    6  A    between atoms: C_17  and  C_21
REMARK    7  A    between atoms: C_22  and  C_27
REMARK                            x       y       z     vdW  Elec       q    Type
REMARK                         _______ _______ _______ _____ _____    ______ ____
ROOT
ATOM      1  N   UNL     1      34.244 -13.171 -23.005  0.00  0.00    +0.392 N 
ATOM      2  H   UNL     1      34.649 -13.208 -23.940  0.00  0.00    -0.084 HD
ATOM      3  H   UNL     1      34.829 -12.609 -22.386  0.00  0.00    -0.084 HD
ENDROOT
BRANCH   1   4
ATOM      4  C   UNL     1      34.160 -14.525 -22.466  0.00  0.00    -0.045 C 
ATOM      5  C   UNL     1      34.003 -16.935 -21.486  0.00  0.00    +0.089 C 
ATOM      6  C   UNL     1      32.695 -14.876 -22.135  0.00  0.00    -0.019 C 
ATOM      7  C   UNL     1      34.994 -14.634 -21.172  0.00  0.00    -0.019 C 
ATOM      8  C   UNL     1      34.696 -15.556 -23.484  0.00  0.00    -0.019 C 
ATOM      9  C   UNL     1      32.604 -16.297 -21.560  0.00  0.00    +0.009 C 
ATOM     10  C   UNL     1      34.900 -16.056 -20.596  0.00  0.00    +0.009 C 
ATOM     11  C   UNL     1      34.603 -16.975 -22.904  0.00  0.00    +0.009 C 
BRANCH   5  13
ATOM     12  O   UNL     1      32.872 -18.943 -20.783  0.00  0.00    -0.250 OA
ATOM     13  C   UNL     1      33.919 -18.328 -20.933  0.00  0.00    +0.316 C 
BRANCH  13  14
ATOM     14  O   UNL     1      35.171 -18.775 -20.633  0.00  0.00    -0.449 OA
BRANCH  14  15
ATOM     15  C   UNL     1      35.438 -20.137 -20.981  0.00  0.00    +0.209 C 
ATOM     16  C   UNL     1      36.201 -20.795 -19.851  0.00  0.00    +0.051 C 
ENDBRANCH  14  15
ENDBRANCH  13  14
ENDBRANCH   5  13
ENDBRANCH   1   4
BRANCH   1  17
ATOM     17  C   UNL     1      32.925 -12.560 -23.081  0.00  0.00    +0.006 C 
BRANCH  17  21
ATOM     18  F   UNL     1      32.918  -8.367 -20.552  0.00  0.00    -0.235 F 
ATOM     19  O   UNL     1      33.641 -11.080 -24.802  0.00  0.00    -0.277 OA
ATOM     20  N   UNL     1      32.635 -10.131 -22.945  0.00  0.00    -0.267 N 
ATOM     21  C   UNL     1      33.104 -11.197 -23.699  0.00  0.00    +0.205 C 
ATOM     22  C   UNL     1      32.641  -8.754 -23.441  0.00  0.00    +0.170 C 
ATOM     23  C   UNL     1      31.992 -10.226 -21.634  0.00  0.00    +0.129 C 
ATOM     24  C   UNL     1      31.668  -8.024 -22.512  0.00  0.00    +0.073 C 
ATOM     25  C   UNL     1      31.797  -8.784 -21.198  0.00  0.00    +0.183 C 
BRANCH  22  27
ATOM     26  N   UNL     1      35.062  -7.729 -23.326  0.00  0.00    -0.194 NA
ATOM     27  C   UNL     1      33.994  -8.181 -23.377  0.00  0.00    +0.093 C 
ENDBRANCH  22  27
ENDBRANCH  17  21
ENDBRANCH   1  17
TORSDOF 7
ENDMDL
MODEL 6
REMARK VINA RESULT:      -8.3      2.997      8.392
REMARK  Name = 11688894
REMARK  7 active torsions:
REMARK  status: ('A' for Active; 'I' for Inactive)
REMARK    1  A    between atoms: N_1  and  C_4
REMARK    2  A    between atoms: N_1  and  C_17
REMARK    3  A    between atoms: C_5  and  C_13
REMARK    4  A    between atoms: C_13  and  O_14
REMARK    5  A    between atoms: O_14  and  C_15
REMARK    6  A    between atoms: C_17  and  C_21
REMARK    7  A    between atoms: C_22  and  C_27
REMARK                            x       y       z     vdW  Elec       q    Type
REMARK                         _______ _______ _______ _____ _____    ______ ____
ROOT
ATOM      1  N   UNL     1      33.751 -22.895 -15.087  0.00  0.00    +0.392 N 
ATOM      2  H   UNL     1      34.001 -21.909 -15.171  0.00  0.00    -0.084 HD
ATOM      3  H   UNL     1      32.929 -23.005 -14.494  0.00  0.00    -0.084 HD
ENDROOT
BRANCH   1   4
ATOM      4  C   UNL     1      34.865 -23.620 -14.481  0.00  0.00    -0.045 C 
ATOM      5  C   UNL     1      36.839 -24.929 -13.395  0.00  0.00    +0.089 C 
ATOM      6  C   UNL     1      35.148 -24.916 -15.269  0.00  0.00    -0.019 C 
ATOM      7  C   UNL     1      34.523 -23.997 -13.024  0.00  0.00    -0.019 C 
ATOM      8  C   UNL     1      36.146 -22.756 -14.477  0.00  0.00    -0.019 C 
ATOM      9  C   UNL     1      36.313 -25.685 -14.629  0.00  0.00    +0.009 C 
ATOM     10  C   UNL     1      35.688 -24.768 -12.386  0.00  0.00    +0.009 C 
ATOM     11  C   UNL     1      37.308 -23.530 -13.837  0.00  0.00    +0.009 C 
BRANCH   5  13
ATOM     12  O   UNL     1      38.216 -25.691 -11.570  0.00  0.00    -0.250 OA
ATOM     13  C   UNL     1      37.985 -25.672 -12.771  0.00  0.00    +0.316 C 
BRANCH  13  14
ATOM     14  O   UNL     1      38.703 -26.301 -13.744  0.00  0.00    -0.449 OA
BRANCH  14  15
ATOM     15  C   UNL     1      40.062 -25.874 -13.878  0.00  0.00    +0.209 C 
ATOM     16  C   UNL     1      40.244 -25.224 -15.233  0.00  0.00    +0.051 C 
ENDBRANCH  14  15
ENDBRANCH  13  14
ENDBRANCH   5  13
ENDBRANCH   1   4
BRANCH   1  17
ATOM     17  C   UNL     1      33.447 -23.424 -16.408  0.00  0.00    +0.006 C 
BRANCH  17  21
ATOM     18  F   UNL     1      29.962 -24.422 -13.115  0.00  0.00    -0.235 F 
ATOM     19  O   UNL     1      31.589 -22.420 -17.508  0.00  0.00    -0.277 OA
ATOM     20  N   UNL     1      31.124 -23.940 -15.825  0.00  0.00    -0.267 N 
ATOM     21  C   UNL     1      31.973 -23.208 -16.642  0.00  0.00    +0.205 C 
ATOM     22  C   UNL     1      29.669 -23.923 -15.986  0.00  0.00    +0.170 C 
ATOM     23  C   UNL     1      31.536 -24.884 -14.786  0.00  0.00    +0.129 C 
ATOM     24  C   UNL     1      29.198 -25.157 -15.213  0.00  0.00    +0.073 C 
ATOM     25  C   UNL     1      30.242 -25.303 -14.112  0.00  0.00    +0.183 C 
BRANCH  22  27
ATOM     26  N   UNL     1      28.643 -21.705 -15.009  0.00  0.00    -0.194 NA
ATOM     27  C   UNL     1      29.096 -22.683 -15.440  0.00  0.00    +0.093 C 
ENDBRANCH  22  27
ENDBRANCH  17  21
ENDBRANCH   1  17
TORSDOF 7
ENDMDL
MODEL 7
REMARK VINA RESULT:      -8.0     12.839     15.042
REMARK  Name = 11688894
REMARK  7 active torsions:
REMARK  status: ('A' for Active; 'I' for Inactive)
REMARK    1  A    between atoms: N_1  and  C_4
REMARK    2  A    between atoms: N_1  and  C_17
REMARK    3  A    between atoms: C_5  and  C_13
REMARK    4  A    between atoms: C_13  and  O_14
REMARK    5  A    between atoms: O_14  and  C_15
REMARK    6  A    between atoms: C_17  and  C_21
REMARK    7  A    between atoms: C_22  and  C_27
REMARK                            x       y       z     vdW  Elec       q    Type
REMARK                         _______ _______ _______ _____ _____    ______ ____
ROOT
ATOM      1  N   UNL     1      32.015 -12.865 -22.838  0.00  0.00    +0.392 N 
ATOM      2  H   UNL     1      31.028 -13.122 -22.849  0.00  0.00    -0.084 HD
ATOM      3  H   UNL     1      32.315 -12.566 -23.766  0.00  0.00    -0.084 HD
ENDROOT
BRANCH   1   4
ATOM      4  C   UNL     1      32.807 -14.028 -22.444  0.00  0.00    -0.045 C 
ATOM      5  C   UNL     1      34.220 -16.094 -21.722  0.00  0.00    +0.089 C 
ATOM      6  C   UNL     1      32.019 -14.892 -21.438  0.00  0.00    -0.019 C 
ATOM      7  C   UNL     1      34.122 -13.572 -21.776  0.00  0.00    -0.019 C 
ATOM      8  C   UNL     1      33.156 -14.897 -23.673  0.00  0.00    -0.019 C 
ATOM      9  C   UNL     1      32.853 -16.110 -21.015  0.00  0.00    +0.009 C 
ATOM     10  C   UNL     1      34.953 -14.793 -21.352  0.00  0.00    +0.009 C 
ATOM     11  C   UNL     1      33.989 -16.114 -23.244  0.00  0.00    +0.009 C 
BRANCH   5  13
ATOM     12  O   UNL     1      35.726 -17.339 -20.310  0.00  0.00    -0.250 OA
ATOM     13  C   UNL     1      35.036 -17.289 -21.320  0.00  0.00    +0.316 C 
BRANCH  13  14
ATOM     14  O   UNL     1      34.882 -18.278 -22.245  0.00  0.00    -0.449 OA
BRANCH  14  15
ATOM     15  C   UNL     1      34.777 -19.604 -21.717  0.00  0.00    +0.209 C 
ATOM     16  C   UNL     1      33.437 -19.757 -21.029  0.00  0.00    +0.051 C 
ENDBRANCH  14  15
ENDBRANCH  13  14
ENDBRANCH   5  13
ENDBRANCH   1   4
BRANCH   1  17
ATOM     17  C   UNL     1      32.211 -11.765 -21.907  0.00  0.00    +0.006 C 
BRANCH  17  21
ATOM     18  F   UNL     1      33.426  -7.407 -20.033  0.00  0.00    -0.235 F 
ATOM     19  O   UNL     1      32.746 -10.622 -23.925  0.00  0.00    -0.277 OA
ATOM     20  N   UNL     1      32.342  -9.323 -22.052  0.00  0.00    -0.267 N 
ATOM     21  C   UNL     1      32.457 -10.527 -22.730  0.00  0.00    +0.205 C 
ATOM     22  C   UNL     1      32.452  -8.027 -22.724  0.00  0.00    +0.170 C 
ATOM     23  C   UNL     1      32.002  -9.165 -20.637  0.00  0.00    +0.129 C 
ATOM     24  C   UNL     1      31.838  -7.042 -21.726  0.00  0.00    +0.073 C 
ATOM     25  C   UNL     1      32.137  -7.676 -20.374  0.00  0.00    +0.183 C 
BRANCH  22  27
ATOM     26  N   UNL     1      34.967  -7.454 -23.247  0.00  0.00    -0.194 NA
ATOM     27  C   UNL     1      33.857  -7.706 -23.016  0.00  0.00    +0.093 C 
ENDBRANCH  22  27
ENDBRANCH  17  21
ENDBRANCH   1  17
TORSDOF 7
ENDMDL
MODEL 8
REMARK VINA RESULT:      -7.9     12.556     14.687
REMARK  Name = 11688894
REMARK  7 active torsions:
REMARK  status: ('A' for Active; 'I' for Inactive)
REMARK    1  A    between atoms: N_1  and  C_4
REMARK    2  A    between atoms: N_1  and  C_17
REMARK    3  A    between atoms: C_5  and  C_13
REMARK    4  A    between atoms: C_13  and  O_14
REMARK    5  A    between atoms: O_14  and  C_15
REMARK    6  A    between atoms: C_17  and  C_21
REMARK    7  A    between atoms: C_22  and  C_27
REMARK                            x       y       z     vdW  Elec       q    Type
REMARK                         _______ _______ _______ _____ _____    ______ ____
ROOT
ATOM      1  N   UNL     1      32.343 -13.192 -21.372  0.00  0.00    +0.392 N 
ATOM      2  H   UNL     1      32.863 -12.616 -20.710  0.00  0.00    -0.084 HD
ATOM      3  H   UNL     1      31.392 -13.349 -21.037  0.00  0.00    -0.084 HD
ENDROOT
BRANCH   1   4
ATOM      4  C   UNL     1      33.009 -14.485 -21.507  0.00  0.00    -0.045 C 
ATOM      5  C   UNL     1      34.197 -16.794 -21.729  0.00  0.00    +0.089 C 
ATOM      6  C   UNL     1      32.096 -15.611 -20.981  0.00  0.00    -0.019 C 
ATOM      7  C   UNL     1      34.320 -14.495 -20.693  0.00  0.00    -0.019 C 
ATOM      8  C   UNL     1      33.348 -14.776 -22.986  0.00  0.00    -0.019 C 
ATOM      9  C   UNL     1      32.797 -16.971 -21.115  0.00  0.00    +0.009 C 
ATOM     10  C   UNL     1      35.018 -15.857 -20.826  0.00  0.00    +0.009 C 
ATOM     11  C   UNL     1      34.048 -16.137 -23.114  0.00  0.00    +0.009 C 
BRANCH   5  13
ATOM     12  O   UNL     1      35.261 -18.587 -22.938  0.00  0.00    -0.250 OA
ATOM     13  C   UNL     1      34.883 -18.122 -21.871  0.00  0.00    +0.316 C 
BRANCH  13  14
ATOM     14  O   UNL     1      35.005 -18.704 -20.645  0.00  0.00    -0.449 OA
BRANCH  14  15
ATOM     15  C   UNL     1      34.877 -20.129 -20.625  0.00  0.00    +0.209 C 
ATOM     16  C   UNL     1      33.464 -20.492 -20.220  0.00  0.00    +0.051 C 
ENDBRANCH  14  15
ENDBRANCH  13  14
ENDBRANCH   5  13
ENDBRANCH   1   4
BRANCH   1  17
ATOM     17  C   UNL     1      32.279 -12.505 -22.653  0.00  0.00    +0.006 C 
BRANCH  17  21
ATOM     18  F   UNL     1      34.051  -8.710 -25.191  0.00  0.00    -0.235 F 
ATOM     19  O   UNL     1      30.925 -10.774 -21.738  0.00  0.00    -0.277 OA
ATOM     20  N   UNL     1      32.848 -10.131 -22.854  0.00  0.00    -0.267 N 
ATOM     21  C   UNL     1      31.946 -11.063 -22.365  0.00  0.00    +0.205 C 
ATOM     22  C   UNL     1      32.727  -8.699 -22.579  0.00  0.00    +0.170 C 
ATOM     23  C   UNL     1      34.070 -10.430 -23.602  0.00  0.00    +0.129 C 
ATOM     24  C   UNL     1      34.112  -8.140 -22.911  0.00  0.00    +0.073 C 
ATOM     25  C   UNL     1      34.614  -9.072 -24.007  0.00  0.00    +0.183 C 
BRANCH  22  27
ATOM     26  N   UNL     1      30.848  -7.614 -24.070  0.00  0.00    -0.194 NA
ATOM     27  C   UNL     1      31.677  -8.093 -23.413  0.00  0.00    +0.093 C 
ENDBRANCH  22  27
ENDBRANCH  17  21
ENDBRANCH   1  17
TORSDOF 7
ENDMDL
MODEL 9
REMARK VINA RESULT:      -7.9     13.044     15.114
REMARK  Name = 11688894
REMARK  7 active torsions:
REMARK  status: ('A' for Active; 'I' for Inactive)
REMARK    1  A    between atoms: N_1  and  C_4
REMARK    2  A    between atoms: N_1  and  C_17
REMARK    3  A    between atoms: C_5  and  C_13
REMARK    4  A    between atoms: C_13  and  O_14
REMARK    5  A    between atoms: O_14  and  C_15
REMARK    6  A    between atoms: C_17  and  C_21
REMARK    7  A    between atoms: C_22  and  C_27
REMARK                            x       y       z     vdW  Elec       q    Type
REMARK                         _______ _______ _______ _____ _____    ______ ____
ROOT
ATOM      1  N   UNL     1      32.126 -13.006 -21.724  0.00  0.00    +0.392 N 
ATOM      2  H   UNL     1      32.302 -12.450 -20.887  0.00  0.00    -0.084 HD
ATOM      3  H   UNL     1      31.147 -13.290 -21.763  0.00  0.00    -0.084 HD
ENDROOT
BRANCH   1   4
ATOM      4  C   UNL     1      32.959 -14.205 -21.686  0.00  0.00    -0.045 C 
ATOM      5  C   UNL     1      34.442 -16.345 -21.597  0.00  0.00    +0.089 C 
ATOM      6  C   UNL     1      32.118 -15.423 -21.250  0.00  0.00    -0.019 C 
ATOM      7  C   UNL     1      34.111 -14.018 -20.677  0.00  0.00    -0.019 C 
ATOM      8  C   UNL     1      33.566 -14.497 -23.076  0.00  0.00    -0.019 C 
ATOM      9  C   UNL     1      32.994 -16.684 -21.201  0.00  0.00    +0.009 C 
ATOM     10  C   UNL     1      34.985 -15.282 -20.627  0.00  0.00    +0.009 C 
ATOM     11  C   UNL     1      34.440 -15.759 -23.021  0.00  0.00    +0.009 C 
BRANCH   5  13
ATOM     12  O   UNL     1      35.695 -18.105 -20.530  0.00  0.00    -0.250 OA
ATOM     13  C   UNL     1      35.300 -17.577 -21.560  0.00  0.00    +0.316 C 
BRANCH  13  14
ATOM     14  O   UNL     1      35.558 -17.991 -22.833  0.00  0.00    -0.449 OA
BRANCH  14  15
ATOM     15  C   UNL     1      34.909 -19.204 -23.229  0.00  0.00    +0.209 C 
ATOM     16  C   UNL     1      34.490 -19.089 -24.678  0.00  0.00    +0.051 C 
ENDBRANCH  14  15
ENDBRANCH  13  14
ENDBRANCH   5  13
ENDBRANCH   1   4
BRANCH   1  17
ATOM     17  C   UNL     1      32.425 -12.204 -22.901  0.00  0.00    +0.006 C 
BRANCH  17  21
ATOM     18  F   UNL     1      34.254  -8.303 -25.228  0.00  0.00    -0.235 F 
ATOM     19  O   UNL     1      31.040 -10.516 -21.953  0.00  0.00    -0.277 OA
ATOM     20  N   UNL     1      32.992  -9.822 -22.987  0.00  0.00    -0.267 N 
ATOM     21  C   UNL     1      32.079 -10.776 -22.563  0.00  0.00    +0.205 C 
ATOM     22  C   UNL     1      32.857  -8.403 -22.656  0.00  0.00    +0.170 C 
ATOM     23  C   UNL     1      34.235 -10.087 -23.712  0.00  0.00    +0.129 C 
ATOM     24  C   UNL     1      34.250  -7.828 -22.926  0.00  0.00    +0.073 C 
ATOM     25  C   UNL     1      34.785  -8.712 -24.045  0.00  0.00    +0.183 C 
BRANCH  22  27
ATOM     26  N   UNL     1      31.019  -7.262 -24.154  0.00  0.00    -0.194 NA
ATOM     27  C   UNL     1      31.830  -7.765 -23.493  0.00  0.00    +0.093 C 
ENDBRANCH  22  27
ENDBRANCH  17  21
ENDBRANCH   1  17
TORSDOF 7
ENDMDL
