MODEL 1
REMARK VINA RESULT:      -6.9      0.000      0.000
REMARK  Name = 27402
REMARK  6 active torsions:
REMARK  status: ('A' for Active; 'I' for Inactive)
REMARK    1  A    between atoms: C_1  and  C_13
REMARK    2  A    between atoms: C_2  and  C_11
REMARK    3  A    between atoms: C_3  and  O_7
REMARK    4  A    between atoms: C_5  and  O_9
REMARK    5  A    between atoms: C_13  and  C_14
REMARK    6  A    between atoms: C_14  and  N_16
REMARK                            x       y       z     vdW  Elec       q    Type
REMARK                         _______ _______ _______ _____ _____    ______ ____
ROOT
ATOM      1  C   UNL     1      35.180 -17.357 -21.993  0.00  0.00    +0.013 C 
ATOM      2  C   UNL     1      34.026 -15.422 -23.609  0.00  0.00    +0.015 C 
ATOM      3  C   UNL     1      35.102 -17.571 -23.362  0.00  0.00    +0.134 C 
ATOM      4  C   UNL     1      34.692 -16.194 -21.419  0.00  0.00    +0.035 C 
ATOM      5  C   UNL     1      34.111 -15.220 -22.232  0.00  0.00    +0.135 C 
ATOM      6  C   UNL     1      34.521 -16.598 -24.174  0.00  0.00    +0.035 C 
ENDROOT
BRANCH   3   7
ATOM      7  O   UNL     1      35.582 -18.712 -23.929  0.00  0.00    -0.472 OA
ATOM      8  C   UNL     1      34.675 -19.472 -24.725  0.00  0.00    +0.252 C 
ENDBRANCH   3   7
BRANCH   5   9
ATOM      9  O   UNL     1      33.632 -14.079 -21.664  0.00  0.00    -0.472 OA
ATOM     10  C   UNL     1      32.649 -14.227 -20.641  0.00  0.00    +0.252 C 
ENDBRANCH   5   9
BRANCH   2  11
ATOM     11  C   UNL     1      33.409 -14.390 -24.495  0.00  0.00    +0.030 C 
ATOM     12  C   UNL     1      33.115 -14.927 -25.892  0.00  0.00    +0.005 C 
ENDBRANCH   2  11
BRANCH   1  13
ATOM     13  C   UNL     1      35.807 -18.400 -21.099  0.00  0.00    +0.008 C 
BRANCH  13  14
ATOM     14  C   UNL     1      35.011 -19.716 -21.034  0.00  0.00    -0.061 C 
ATOM     15  C   UNL     1      33.514 -19.485 -20.831  0.00  0.00    -0.024 C 
BRANCH  14  16
ATOM     16  N   UNL     1      35.508 -20.533 -19.923  0.00  0.00    +0.382 N 
ATOM     17  H   UNL     1      35.967 -21.366 -20.292  0.00  0.00    -0.089 HD
ATOM     18  H   UNL     1      34.726 -20.811 -19.330  0.00  0.00    -0.089 HD
ATOM     19  H   UNL     1      36.175 -19.991 -19.375  0.00  0.00    -0.089 HD
ENDBRANCH  14  16
ENDBRANCH  13  14
ENDBRANCH   1  13
TORSDOF 6
ENDMDL
MODEL 2
REMARK VINA RESULT:      -6.9      6.579      9.661
REMARK  Name = 27402
REMARK  6 active torsions:
REMARK  status: ('A' for Active; 'I' for Inactive)
REMARK    1  A    between atoms: C_1  and  C_13
REMARK    2  A    between atoms: C_2  and  C_11
REMARK    3  A    between atoms: C_3  and  O_7
REMARK    4  A    between atoms: C_5  and  O_9
REMARK    5  A    between atoms: C_13  and  C_14
REMARK    6  A    between atoms: C_14  and  N_16
REMARK                            x       y       z     vdW  Elec       q    Type
REMARK                         _______ _______ _______ _____ _____    ______ ____
ROOT
ATOM      1  C   UNL     1      33.220 -23.031 -17.492  0.00  0.00    +0.013 C 
ATOM      2  C   UNL     1      32.103 -23.266 -14.965  0.00  0.00    +0.015 C 
ATOM      3  C   UNL     1      34.034 -23.344 -16.414  0.00  0.00    +0.134 C 
ATOM      4  C   UNL     1      31.857 -22.835 -17.330  0.00  0.00    +0.035 C 
ATOM      5  C   UNL     1      31.295 -22.953 -16.058  0.00  0.00    +0.135 C 
ATOM      6  C   UNL     1      33.473 -23.462 -15.144  0.00  0.00    +0.035 C 
ENDROOT
BRANCH   3   7
ATOM      7  O   UNL     1      35.373 -23.539 -16.571  0.00  0.00    -0.472 OA
ATOM      8  C   UNL     1      36.241 -22.534 -16.050  0.00  0.00    +0.252 C 
ENDBRANCH   3   7
BRANCH   5   9
ATOM      9  O   UNL     1      29.956 -22.759 -15.901  0.00  0.00    -0.472 OA
ATOM     10  C   UNL     1      29.089 -23.753 -16.443  0.00  0.00    +0.252 C 
ENDBRANCH   5   9
BRANCH   2  11
ATOM     11  C   UNL     1      31.519 -23.400 -13.598  0.00  0.00    +0.030 C 
ATOM     12  C   UNL     1      30.962 -24.796 -13.339  0.00  0.00    +0.005 C 
ENDBRANCH   2  11
BRANCH   1  13
ATOM     13  C   UNL     1      33.811 -22.900 -18.876  0.00  0.00    +0.008 C 
BRANCH  13  14
ATOM     14  C   UNL     1      34.283 -21.474 -19.212  0.00  0.00    -0.061 C 
ATOM     15  C   UNL     1      33.294 -20.723 -20.101  0.00  0.00    -0.024 C 
BRANCH  14  16
ATOM     16  N   UNL     1      35.573 -21.538 -19.907  0.00  0.00    +0.382 N 
ATOM     17  H   UNL     1      35.772 -22.503 -20.167  0.00  0.00    -0.089 HD
ATOM     18  H   UNL     1      36.308 -21.193 -19.289  0.00  0.00    -0.089 HD
ATOM     19  H   UNL     1      35.535 -20.960 -20.746  0.00  0.00    -0.089 HD
ENDBRANCH  14  16
ENDBRANCH  13  14
ENDBRANCH   1  13
TORSDOF 6
ENDMDL
MODEL 3
REMARK VINA RESULT:      -6.8      6.190      9.365
REMARK  Name = 27402
REMARK  6 active torsions:
REMARK  status: ('A' for Active; 'I' for Inactive)
REMARK    1  A    between atoms: C_1  and  C_13
REMARK    2  A    between atoms: C_2  and  C_11
REMARK    3  A    between atoms: C_3  and  O_7
REMARK    4  A    between atoms: C_5  and  O_9
REMARK    5  A    between atoms: C_13  and  C_14
REMARK    6  A    between atoms: C_14  and  N_16
REMARK                            x       y       z     vdW  Elec       q    Type
REMARK                         _______ _______ _______ _____ _____    ______ ____
ROOT
ATOM      1  C   UNL     1      33.737 -22.773 -17.879  0.00  0.00    +0.013 C 
ATOM      2  C   UNL     1      33.408 -23.463 -15.213  0.00  0.00    +0.015 C 
ATOM      3  C   UNL     1      34.840 -22.787 -17.038  0.00  0.00    +0.134 C 
ATOM      4  C   UNL     1      32.473 -23.098 -17.411  0.00  0.00    +0.035 C 
ATOM      5  C   UNL     1      32.308 -23.445 -16.070  0.00  0.00    +0.135 C 
ATOM      6  C   UNL     1      34.675 -23.134 -15.698  0.00  0.00    +0.035 C 
ENDROOT
BRANCH   3   7
ATOM      7  O   UNL     1      36.083 -22.470 -17.496  0.00  0.00    -0.472 OA
ATOM      8  C   UNL     1      37.029 -22.008 -16.534  0.00  0.00    +0.252 C 
ENDBRANCH   3   7
BRANCH   5   9
ATOM      9  O   UNL     1      31.065 -23.762 -15.612  0.00  0.00    -0.472 OA
ATOM     10  C   UNL     1      29.972 -23.000 -16.121  0.00  0.00    +0.252 C 
ENDBRANCH   5   9
BRANCH   2  11
ATOM     11  C   UNL     1      33.251 -23.834 -13.775  0.00  0.00    +0.030 C 
ATOM     12  C   UNL     1      34.581 -24.188 -13.119  0.00  0.00    +0.005 C 
ENDBRANCH   2  11
BRANCH   1  13
ATOM     13  C   UNL     1      33.897 -22.400 -19.334  0.00  0.00    +0.008 C 
BRANCH  13  14
ATOM     14  C   UNL     1      33.984 -20.883 -19.575  0.00  0.00    -0.061 C 
ATOM     15  C   UNL     1      33.004 -20.403 -20.645  0.00  0.00    -0.024 C 
BRANCH  14  16
ATOM     16  N   UNL     1      35.343 -20.534 -20.003  0.00  0.00    +0.382 N 
ATOM     17  H   UNL     1      35.506 -19.541 -19.840  0.00  0.00    -0.089 HD
ATOM     18  H   UNL     1      35.448 -20.737 -20.997  0.00  0.00    -0.089 HD
ATOM     19  H   UNL     1      36.018 -21.082 -19.470  0.00  0.00    -0.089 HD
ENDBRANCH  14  16
ENDBRANCH  13  14
ENDBRANCH   1  13
TORSDOF 6
ENDMDL
MODEL 4
REMARK VINA RESULT:      -6.8      4.370      6.843
REMARK  Name = 27402
REMARK  6 active torsions:
REMARK  status: ('A' for Active; 'I' for Inactive)
REMARK    1  A    between atoms: C_1  and  C_13
REMARK    2  A    between atoms: C_2  and  C_11
REMARK    3  A    between atoms: C_3  and  O_7
REMARK    4  A    between atoms: C_5  and  O_9
REMARK    5  A    between atoms: C_13  and  C_14
REMARK    6  A    between atoms: C_14  and  N_16
REMARK                            x       y       z     vdW  Elec       q    Type
REMARK                         _______ _______ _______ _____ _____    ______ ____
ROOT
ATOM      1  C   UNL     1      32.224 -11.368 -22.202  0.00  0.00    +0.013 C 
ATOM      2  C   UNL     1      33.240 -13.587 -23.517  0.00  0.00    +0.015 C 
ATOM      3  C   UNL     1      32.988 -11.191 -23.345  0.00  0.00    +0.134 C 
ATOM      4  C   UNL     1      31.958 -12.634 -21.704  0.00  0.00    +0.035 C 
ATOM      5  C   UNL     1      32.470 -13.751 -22.366  0.00  0.00    +0.135 C 
ATOM      6  C   UNL     1      33.499 -12.306 -24.007  0.00  0.00    +0.035 C 
ENDROOT
BRANCH   3   7
ATOM      7  O   UNL     1      33.249  -9.947 -23.837  0.00  0.00    -0.472 OA
ATOM      8  C   UNL     1      34.605  -9.652 -24.165  0.00  0.00    +0.252 C 
ENDBRANCH   3   7
BRANCH   5   9
ATOM      9  O   UNL     1      32.208 -14.994 -21.875  0.00  0.00    -0.472 OA
ATOM     10  C   UNL     1      32.720 -15.300 -20.580  0.00  0.00    +0.252 C 
ENDBRANCH   5   9
BRANCH   2  11
ATOM     11  C   UNL     1      33.793 -14.770 -24.240  0.00  0.00    +0.030 C 
ATOM     12  C   UNL     1      33.186 -14.937 -25.629  0.00  0.00    +0.005 C 
ENDBRANCH   2  11
BRANCH   1  13
ATOM     13  C   UNL     1      31.662 -10.170 -21.473  0.00  0.00    +0.008 C 
BRANCH  13  14
ATOM     14  C   UNL     1      32.111 -10.076 -20.004  0.00  0.00    -0.061 C 
ATOM     15  C   UNL     1      31.001 -10.455 -19.025  0.00  0.00    -0.024 C 
BRANCH  14  16
ATOM     16  N   UNL     1      32.536  -8.703 -19.711  0.00  0.00    +0.382 N 
ATOM     17  H   UNL     1      31.788  -8.056 -19.955  0.00  0.00    -0.089 HD
ATOM     18  H   UNL     1      33.369  -8.482 -20.257  0.00  0.00    -0.089 HD
ATOM     19  H   UNL     1      32.749  -8.619 -18.717  0.00  0.00    -0.089 HD
ENDBRANCH  14  16
ENDBRANCH  13  14
ENDBRANCH   1  13
TORSDOF 6
ENDMDL
MODEL 5
REMARK VINA RESULT:      -6.7      7.556     10.104
REMARK  Name = 27402
REMARK  6 active torsions:
REMARK  status: ('A' for Active; 'I' for Inactive)
REMARK    1  A    between atoms: C_1  and  C_13
REMARK    2  A    between atoms: C_2  and  C_11
REMARK    3  A    between atoms: C_3  and  O_7
REMARK    4  A    between atoms: C_5  and  O_9
REMARK    5  A    between atoms: C_13  and  C_14
REMARK    6  A    between atoms: C_14  and  N_16
REMARK                            x       y       z     vdW  Elec       q    Type
REMARK                         _______ _______ _______ _____ _____    ______ ____
ROOT
ATOM      1  C   UNL     1      33.971 -23.529 -15.755  0.00  0.00    +0.013 C 
ATOM      2  C   UNL     1      31.261 -23.030 -16.067  0.00  0.00    +0.015 C 
ATOM      3  C   UNL     1      33.469 -23.260 -17.020  0.00  0.00    +0.134 C 
ATOM      4  C   UNL     1      33.143 -23.552 -14.644  0.00  0.00    +0.035 C 
ATOM      5  C   UNL     1      31.779 -23.301 -14.801  0.00  0.00    +0.135 C 
ATOM      6  C   UNL     1      32.107 -23.009 -17.177  0.00  0.00    +0.035 C 
ENDROOT
BRANCH   3   7
ATOM      7  O   UNL     1      34.281 -23.234 -18.113  0.00  0.00    -0.472 OA
ATOM      8  C   UNL     1      33.967 -22.287 -19.132  0.00  0.00    +0.252 C 
ENDBRANCH   3   7
BRANCH   5   9
ATOM      9  O   UNL     1      30.968 -23.326 -13.707  0.00  0.00    -0.472 OA
ATOM     10  C   UNL     1      30.645 -24.606 -13.168  0.00  0.00    +0.252 C 
ENDBRANCH   5   9
BRANCH   2  11
ATOM     11  C   UNL     1      29.805 -22.756 -16.254  0.00  0.00    +0.030 C 
ATOM     12  C   UNL     1      28.994 -24.035 -16.436  0.00  0.00    +0.005 C 
ENDBRANCH   2  11
BRANCH   1  13
ATOM     13  C   UNL     1      35.444 -23.802 -15.567  0.00  0.00    +0.008 C 
BRANCH  13  14
ATOM     14  C   UNL     1      35.741 -24.883 -14.513  0.00  0.00    -0.061 C 
ATOM     15  C   UNL     1      37.100 -24.689 -13.840  0.00  0.00    -0.024 C 
BRANCH  14  16
ATOM     16  N   UNL     1      35.725 -26.203 -15.149  0.00  0.00    +0.382 N 
ATOM     17  H   UNL     1      35.027 -26.792 -14.695  0.00  0.00    -0.089 HD
ATOM     18  H   UNL     1      36.645 -26.635 -15.059  0.00  0.00    -0.089 HD
ATOM     19  H   UNL     1      35.493 -26.101 -16.137  0.00  0.00    -0.089 HD
ENDBRANCH  14  16
ENDBRANCH  13  14
ENDBRANCH   1  13
TORSDOF 6
ENDMDL
MODEL 6
REMARK VINA RESULT:      -6.7      3.002      5.384
REMARK  Name = 27402
REMARK  6 active torsions:
REMARK  status: ('A' for Active; 'I' for Inactive)
REMARK    1  A    between atoms: C_1  and  C_13
REMARK    2  A    between atoms: C_2  and  C_11
REMARK    3  A    between atoms: C_3  and  O_7
REMARK    4  A    between atoms: C_5  and  O_9
REMARK    5  A    between atoms: C_13  and  C_14
REMARK    6  A    between atoms: C_14  and  N_16
REMARK                            x       y       z     vdW  Elec       q    Type
REMARK                         _______ _______ _______ _____ _____    ______ ____
ROOT
ATOM      1  C   UNL     1      33.595 -13.809 -23.332  0.00  0.00    +0.013 C 
ATOM      2  C   UNL     1      34.270 -16.183 -24.595  0.00  0.00    +0.015 C 
ATOM      3  C   UNL     1      34.252 -14.798 -22.616  0.00  0.00    +0.134 C 
ATOM      4  C   UNL     1      33.270 -13.985 -24.668  0.00  0.00    +0.035 C 
ATOM      5  C   UNL     1      33.609 -15.179 -25.303  0.00  0.00    +0.135 C 
ATOM      6  C   UNL     1      34.592 -15.992 -23.251  0.00  0.00    +0.035 C 
ENDROOT
BRANCH   3   7
ATOM      7  O   UNL     1      34.575 -14.627 -21.304  0.00  0.00    -0.472 OA
ATOM      8  C   UNL     1      34.612 -15.796 -20.488  0.00  0.00    +0.252 C 
ENDBRANCH   3   7
BRANCH   5   9
ATOM      9  O   UNL     1      33.287 -15.350 -26.616  0.00  0.00    -0.472 OA
ATOM     10  C   UNL     1      33.033 -14.173 -27.380  0.00  0.00    +0.252 C 
ENDBRANCH   5   9
BRANCH   2  11
ATOM     11  C   UNL     1      34.644 -17.467 -25.260  0.00  0.00    +0.030 C 
ATOM     12  C   UNL     1      34.673 -18.638 -24.283  0.00  0.00    +0.005 C 
ENDBRANCH   2  11
BRANCH   1  13
ATOM     13  C   UNL     1      33.220 -12.509 -22.660  0.00  0.00    +0.008 C 
BRANCH  13  14
ATOM     14  C   UNL     1      31.883 -12.571 -21.901  0.00  0.00    -0.061 C 
ATOM     15  C   UNL     1      31.132 -11.240 -21.927  0.00  0.00    -0.024 C 
BRANCH  14  16
ATOM     16  N   UNL     1      32.131 -12.934 -20.503  0.00  0.00    +0.382 N 
ATOM     17  H   UNL     1      33.126 -12.845 -20.299  0.00  0.00    -0.089 HD
ATOM     18  H   UNL     1      31.836 -13.898 -20.345  0.00  0.00    -0.089 HD
ATOM     19  H   UNL     1      31.602 -12.312 -19.891  0.00  0.00    -0.089 HD
ENDBRANCH  14  16
ENDBRANCH  13  14
ENDBRANCH   1  13
TORSDOF 6
ENDMDL
MODEL 7
REMARK VINA RESULT:      -6.7      5.036      7.724
REMARK  Name = 27402
REMARK  6 active torsions:
REMARK  status: ('A' for Active; 'I' for Inactive)
REMARK    1  A    between atoms: C_1  and  C_13
REMARK    2  A    between atoms: C_2  and  C_11
REMARK    3  A    between atoms: C_3  and  O_7
REMARK    4  A    between atoms: C_5  and  O_9
REMARK    5  A    between atoms: C_13  and  C_14
REMARK    6  A    between atoms: C_14  and  N_16
REMARK                            x       y       z     vdW  Elec       q    Type
REMARK                         _______ _______ _______ _____ _____    ______ ____
ROOT
ATOM      1  C   UNL     1      32.005 -10.866 -22.182  0.00  0.00    +0.013 C 
ATOM      2  C   UNL     1      33.619 -11.210 -24.410  0.00  0.00    +0.015 C 
ATOM      3  C   UNL     1      32.355  -9.763 -22.946  0.00  0.00    +0.134 C 
ATOM      4  C   UNL     1      32.447 -12.138 -22.512  0.00  0.00    +0.035 C 
ATOM      5  C   UNL     1      33.259 -12.311 -23.632  0.00  0.00    +0.135 C 
ATOM      6  C   UNL     1      33.166  -9.935 -24.066  0.00  0.00    +0.035 C 
ENDROOT
BRANCH   3   7
ATOM      7  O   UNL     1      31.920  -8.512 -22.626  0.00  0.00    -0.472 OA
ATOM      8  C   UNL     1      31.111  -7.840 -23.589  0.00  0.00    +0.252 C 
ENDBRANCH   3   7
BRANCH   5   9
ATOM      9  O   UNL     1      33.693 -13.561 -23.954  0.00  0.00    -0.472 OA
ATOM     10  C   UNL     1      34.291 -14.328 -22.910  0.00  0.00    +0.252 C 
ENDBRANCH   5   9
BRANCH   2  11
ATOM     11  C   UNL     1      34.485 -11.377 -25.615  0.00  0.00    +0.030 C 
ATOM     12  C   UNL     1      35.522 -10.266 -25.741  0.00  0.00    +0.005 C 
ENDBRANCH   2  11
BRANCH   1  13
ATOM     13  C   UNL     1      31.126 -10.697 -20.965  0.00  0.00    +0.008 C 
BRANCH  13  14
ATOM     14  C   UNL     1      31.903 -10.323 -19.690  0.00  0.00    -0.061 C 
ATOM     15  C   UNL     1      31.278 -10.915 -18.428  0.00  0.00    -0.024 C 
BRANCH  14  16
ATOM     16  N   UNL     1      31.935  -8.864 -19.549  0.00  0.00    +0.382 N 
ATOM     17  H   UNL     1      32.466  -8.459 -20.319  0.00  0.00    -0.089 HD
ATOM     18  H   UNL     1      32.380  -8.619 -18.664  0.00  0.00    -0.089 HD
ATOM     19  H   UNL     1      30.983  -8.500 -19.563  0.00  0.00    -0.089 HD
ENDBRANCH  14  16
ENDBRANCH  13  14
ENDBRANCH   1  13
TORSDOF 6
ENDMDL
MODEL 8
REMARK VINA RESULT:      -6.7      2.335      5.618
REMARK  Name = 27402
REMARK  6 active torsions:
REMARK  status: ('A' for Active; 'I' for Inactive)
REMARK    1  A    between atoms: C_1  and  C_13
REMARK    2  A    between atoms: C_2  and  C_11
REMARK    3  A    between atoms: C_3  and  O_7
REMARK    4  A    between atoms: C_5  and  O_9
REMARK    5  A    between atoms: C_13  and  C_14
REMARK    6  A    between atoms: C_14  and  N_16
REMARK                            x       y       z     vdW  Elec       q    Type
REMARK                         _______ _______ _______ _____ _____    ______ ____
ROOT
ATOM      1  C   UNL     1      34.567 -15.922 -22.941  0.00  0.00    +0.013 C 
ATOM      2  C   UNL     1      34.688 -18.375 -21.654  0.00  0.00    +0.015 C 
ATOM      3  C   UNL     1      34.297 -15.992 -21.583  0.00  0.00    +0.134 C 
ATOM      4  C   UNL     1      34.897 -17.056 -23.668  0.00  0.00    +0.035 C 
ATOM      5  C   UNL     1      34.957 -18.289 -23.020  0.00  0.00    +0.135 C 
ATOM      6  C   UNL     1      34.358 -17.225 -20.935  0.00  0.00    +0.035 C 
ENDROOT
BRANCH   3   7
ATOM      7  O   UNL     1      33.975 -14.879 -20.866  0.00  0.00    -0.472 OA
ATOM      8  C   UNL     1      32.696 -14.861 -20.238  0.00  0.00    +0.252 C 
ENDBRANCH   3   7
BRANCH   5   9
ATOM      9  O   UNL     1      35.280 -19.402 -23.736  0.00  0.00    -0.472 OA
ATOM     10  C   UNL     1      34.552 -19.632 -24.941  0.00  0.00    +0.252 C 
ENDBRANCH   5   9
BRANCH   2  11
ATOM     11  C   UNL     1      34.751 -19.686 -20.944  0.00  0.00    +0.030 C 
ATOM     12  C   UNL     1      33.376 -20.167 -20.491  0.00  0.00    +0.005 C 
ENDBRANCH   2  11
BRANCH   1  13
ATOM     13  C   UNL     1      34.507 -14.594 -23.658  0.00  0.00    +0.008 C 
BRANCH  13  14
ATOM     14  C   UNL     1      33.088 -14.200 -24.107  0.00  0.00    -0.061 C 
ATOM     15  C   UNL     1      33.017 -13.862 -25.596  0.00  0.00    -0.024 C 
BRANCH  14  16
ATOM     16  N   UNL     1      32.643 -13.028 -23.346  0.00  0.00    +0.382 N 
ATOM     17  H   UNL     1      33.288 -12.858 -22.575  0.00  0.00    -0.089 HD
ATOM     18  H   UNL     1      31.708 -13.199 -22.977  0.00  0.00    -0.089 HD
ATOM     19  H   UNL     1      32.623 -12.213 -23.959  0.00  0.00    -0.089 HD
ENDBRANCH  14  16
ENDBRANCH  13  14
ENDBRANCH   1  13
TORSDOF 6
ENDMDL
MODEL 9
REMARK VINA RESULT:      -6.5      4.780      7.895
REMARK  Name = 27402
REMARK  6 active torsions:
REMARK  status: ('A' for Active; 'I' for Inactive)
REMARK    1  A    between atoms: C_1  and  C_13
REMARK    2  A    between atoms: C_2  and  C_11
REMARK    3  A    between atoms: C_3  and  O_7
REMARK    4  A    between atoms: C_5  and  O_9
REMARK    5  A    between atoms: C_13  and  C_14
REMARK    6  A    between atoms: C_14  and  N_16
REMARK                            x       y       z     vdW  Elec       q    Type
REMARK                         _______ _______ _______ _____ _____    ______ ____
ROOT
ATOM      1  C   UNL     1      31.961 -11.123 -22.301  0.00  0.00    +0.013 C 
ATOM      2  C   UNL     1      32.651 -13.746 -21.726  0.00  0.00    +0.015 C 
ATOM      3  C   UNL     1      31.545 -11.690 -21.105  0.00  0.00    +0.134 C 
ATOM      4  C   UNL     1      32.716 -11.844 -23.213  0.00  0.00    +0.035 C 
ATOM      5  C   UNL     1      33.062 -13.163 -22.924  0.00  0.00    +0.135 C 
ATOM      6  C   UNL     1      31.891 -13.009 -20.816  0.00  0.00    +0.035 C 
ENDROOT
BRANCH   3   7
ATOM      7  O   UNL     1      30.805 -10.984 -20.206  0.00  0.00    -0.472 OA
ATOM      8  C   UNL     1      31.384 -10.761 -18.922  0.00  0.00    +0.252 C 
ENDBRANCH   3   7
BRANCH   5   9
ATOM      9  O   UNL     1      33.803 -13.869 -23.823  0.00  0.00    -0.472 OA
ATOM     10  C   UNL     1      33.169 -14.222 -25.051  0.00  0.00    +0.252 C 
ENDBRANCH   5   9
BRANCH   2  11
ATOM     11  C   UNL     1      33.015 -15.157 -21.399  0.00  0.00    +0.030 C 
ATOM     12  C   UNL     1      34.279 -15.247 -20.550  0.00  0.00    +0.005 C 
ENDBRANCH   2  11
BRANCH   1  13
ATOM     13  C   UNL     1      31.595  -9.695 -22.629  0.00  0.00    +0.008 C 
BRANCH  13  14
ATOM     14  C   UNL     1      32.752  -8.700 -22.429  0.00  0.00    -0.061 C 
ATOM     15  C   UNL     1      32.663  -7.958 -21.096  0.00  0.00    -0.024 C 
BRANCH  14  16
ATOM     16  N   UNL     1      32.738  -7.710 -23.510  0.00  0.00    +0.382 N 
ATOM     17  H   UNL     1      32.196  -8.071 -24.295  0.00  0.00    -0.089 HD
ATOM     18  H   UNL     1      33.695  -7.526 -23.814  0.00  0.00    -0.089 HD
ATOM     19  H   UNL     1      32.315  -6.845 -23.174  0.00  0.00    -0.089 HD
ENDBRANCH  14  16
ENDBRANCH  13  14
ENDBRANCH   1  13
TORSDOF 6
ENDMDL
