MODEL 1
REMARK VINA RESULT:      -9.7      0.000      0.000
REMARK  Name = 4495
REMARK  5 active torsions:
REMARK  status: ('A' for Active; 'I' for Inactive)
REMARK    1  A    between atoms: C_1  and  N_10
REMARK    2  A    between atoms: C_2  and  O_16
REMARK    3  A    between atoms: C_5  and  N_9
REMARK    4  A    between atoms: N_10  and  S_12
REMARK    5  A    between atoms: O_16  and  C_17
REMARK                            x       y       z     vdW  Elec       q    Type
REMARK                         _______ _______ _______ _____ _____    ______ ____
ROOT
ATOM      1  C   UNL     1      34.080 -23.250 -15.751  0.00  0.00    +0.099 C 
ATOM      2  C   UNL     1      33.492 -23.287 -17.016  0.00  0.00    +0.161 C 
ATOM      3  C   UNL     1      33.281 -23.129 -14.614  0.00  0.00    +0.021 C 
ATOM      4  C   UNL     1      32.106 -23.202 -17.143  0.00  0.00    +0.063 C 
ATOM      5  C   UNL     1      31.307 -23.081 -16.007  0.00  0.00    +0.146 C 
ATOM      6  C   UNL     1      31.895 -23.044 -14.742  0.00  0.00    +0.026 C 
ENDROOT
BRANCH   5   9
ATOM      7  O   UNL     1      29.169 -23.541 -15.272  0.00  0.00    -0.126 OA
ATOM      8  O   UNL     1      29.413 -22.369 -17.112  0.00  0.00    -0.126 OA
ATOM      9  N   UNL     1      29.895 -22.993 -16.136  0.00  0.00    +0.058 N 
ENDBRANCH   5   9
BRANCH   1  10
ATOM     10  N   UNL     1      35.500 -23.334 -15.605  0.00  0.00    -0.216 N 
ATOM     11  H   UNL     1      36.084 -22.602 -15.909  0.00  0.00    +0.173 HD
BRANCH  10  12
ATOM     12  S   UNL     1      36.158 -24.750 -14.881  0.00  0.00    +0.056 S 
ATOM     13  O   UNL     1      35.777 -24.767 -13.481  0.00  0.00    -0.154 OA
ATOM     14  O   UNL     1      35.940 -25.912 -15.720  0.00  0.00    -0.154 OA
ATOM     15  C   UNL     1      37.892 -24.354 -14.937  0.00  0.00    +0.200 C 
ENDBRANCH  10  12
ENDBRANCH   1  10
BRANCH   2  16
ATOM     16  O   UNL     1      34.256 -23.404 -18.139  0.00  0.00    -0.452 OA
BRANCH  16  17
ATOM     17  C   UNL     1      34.398 -22.284 -18.938  0.00  0.00    +0.145 C 
ATOM     18  C   UNL     1      33.266 -21.642 -19.408  0.00  0.00    +0.037 C 
ATOM     19  C   UNL     1      35.669 -21.833 -19.248  0.00  0.00    +0.037 C 
ATOM     20  C   UNL     1      33.410 -20.512 -20.214  0.00  0.00    +0.003 C 
ATOM     21  C   UNL     1      35.813 -20.704 -20.054  0.00  0.00    +0.003 C 
ATOM     22  C   UNL     1      34.683 -20.044 -20.538  0.00  0.00    +0.000 C 
ENDBRANCH  16  17
ENDBRANCH   2  16
TORSDOF 5
ENDMDL
MODEL 2
REMARK VINA RESULT:      -9.4      2.054      4.827
REMARK  Name = 4495
REMARK  5 active torsions:
REMARK  status: ('A' for Active; 'I' for Inactive)
REMARK    1  A    between atoms: C_1  and  N_10
REMARK    2  A    between atoms: C_2  and  O_16
REMARK    3  A    between atoms: C_5  and  N_9
REMARK    4  A    between atoms: N_10  and  S_12
REMARK    5  A    between atoms: O_16  and  C_17
REMARK                            x       y       z     vdW  Elec       q    Type
REMARK                         _______ _______ _______ _____ _____    ______ ____
ROOT
ATOM      1  C   UNL     1      31.671 -22.798 -16.506  0.00  0.00    +0.099 C 
ATOM      2  C   UNL     1      32.769 -22.969 -17.348  0.00  0.00    +0.161 C 
ATOM      3  C   UNL     1      31.809 -22.990 -15.131  0.00  0.00    +0.021 C 
ATOM      4  C   UNL     1      34.006 -23.333 -16.816  0.00  0.00    +0.063 C 
ATOM      5  C   UNL     1      34.145 -23.526 -15.442  0.00  0.00    +0.146 C 
ATOM      6  C   UNL     1      33.046 -23.355 -14.599  0.00  0.00    +0.026 C 
ENDROOT
BRANCH   5   9
ATOM      7  O   UNL     1      36.113 -24.725 -15.524  0.00  0.00    -0.126 OA
ATOM      8  O   UNL     1      35.772 -23.392 -13.814  0.00  0.00    -0.126 OA
ATOM      9  N   UNL     1      35.404 -23.899 -14.901  0.00  0.00    +0.058 N 
ENDBRANCH   5   9
BRANCH   1  10
ATOM     10  N   UNL     1      30.396 -22.426 -17.037  0.00  0.00    -0.216 N 
ATOM     11  H   UNL     1      30.297 -21.628 -17.604  0.00  0.00    +0.173 HD
BRANCH  10  12
ATOM     12  S   UNL     1      29.039 -23.415 -16.655  0.00  0.00    +0.056 S 
ATOM     13  O   UNL     1      28.166 -23.460 -17.813  0.00  0.00    -0.154 OA
ATOM     14  O   UNL     1      29.456 -24.637 -15.997  0.00  0.00    -0.154 OA
ATOM     15  C   UNL     1      28.235 -22.390 -15.443  0.00  0.00    +0.200 C 
ENDBRANCH  10  12
ENDBRANCH   1  10
BRANCH   2  16
ATOM     16  O   UNL     1      32.653 -22.786 -18.694  0.00  0.00    -0.452 OA
BRANCH  16  17
ATOM     17  C   UNL     1      33.533 -21.907 -19.300  0.00  0.00    +0.145 C 
ATOM     18  C   UNL     1      34.891 -22.166 -19.247  0.00  0.00    +0.037 C 
ATOM     19  C   UNL     1      33.032 -20.789 -19.945  0.00  0.00    +0.037 C 
ATOM     20  C   UNL     1      35.777 -21.279 -19.858  0.00  0.00    +0.003 C 
ATOM     21  C   UNL     1      33.919 -19.902 -20.556  0.00  0.00    +0.003 C 
ATOM     22  C   UNL     1      35.291 -20.147 -20.512  0.00  0.00    +0.000 C 
ENDBRANCH  16  17
ENDBRANCH   2  16
TORSDOF 5
ENDMDL
MODEL 3
REMARK VINA RESULT:      -9.3      2.065      4.756
REMARK  Name = 4495
REMARK  5 active torsions:
REMARK  status: ('A' for Active; 'I' for Inactive)
REMARK    1  A    between atoms: C_1  and  N_10
REMARK    2  A    between atoms: C_2  and  O_16
REMARK    3  A    between atoms: C_5  and  N_9
REMARK    4  A    between atoms: N_10  and  S_12
REMARK    5  A    between atoms: O_16  and  C_17
REMARK                            x       y       z     vdW  Elec       q    Type
REMARK                         _______ _______ _______ _____ _____    ______ ____
ROOT
ATOM      1  C   UNL     1      31.707 -22.841 -16.525  0.00  0.00    +0.099 C 
ATOM      2  C   UNL     1      32.811 -22.965 -17.368  0.00  0.00    +0.161 C 
ATOM      3  C   UNL     1      31.854 -23.030 -15.151  0.00  0.00    +0.021 C 
ATOM      4  C   UNL     1      34.062 -23.278 -16.837  0.00  0.00    +0.063 C 
ATOM      5  C   UNL     1      34.210 -23.467 -15.463  0.00  0.00    +0.146 C 
ATOM      6  C   UNL     1      33.105 -23.343 -14.620  0.00  0.00    +0.026 C 
ENDROOT
BRANCH   5   9
ATOM      7  O   UNL     1      35.647 -23.737 -13.680  0.00  0.00    -0.126 OA
ATOM      8  O   UNL     1      36.410 -24.113 -15.703  0.00  0.00    -0.126 OA
ATOM      9  N   UNL     1      35.483 -23.788 -14.923  0.00  0.00    +0.058 N 
ENDBRANCH   5   9
BRANCH   1  10
ATOM     10  N   UNL     1      30.417 -22.523 -17.054  0.00  0.00    -0.216 N 
ATOM     11  H   UNL     1      30.325 -22.065 -17.921  0.00  0.00    +0.173 HD
BRANCH  10  12
ATOM     12  S   UNL     1      29.031 -22.963 -16.134  0.00  0.00    +0.056 S 
ATOM     13  O   UNL     1      29.162 -24.355 -15.747  0.00  0.00    -0.154 OA
ATOM     14  O   UNL     1      28.720 -21.949 -15.146  0.00  0.00    -0.154 OA
ATOM     15  C   UNL     1      27.780 -22.895 -17.398  0.00  0.00    +0.200 C 
ENDBRANCH  10  12
ENDBRANCH   1  10
BRANCH   2  16
ATOM     16  O   UNL     1      32.687 -22.785 -18.714  0.00  0.00    -0.452 OA
BRANCH  16  17
ATOM     17  C   UNL     1      33.567 -21.912 -19.328  0.00  0.00    +0.145 C 
ATOM     18  C   UNL     1      33.072 -20.776 -19.944  0.00  0.00    +0.037 C 
ATOM     19  C   UNL     1      34.921 -22.196 -19.312  0.00  0.00    +0.037 C 
ATOM     20  C   UNL     1      33.959 -19.896 -20.564  0.00  0.00    +0.003 C 
ATOM     21  C   UNL     1      35.808 -21.317 -19.932  0.00  0.00    +0.003 C 
ATOM     22  C   UNL     1      35.327 -20.167 -20.558  0.00  0.00    +0.000 C 
ENDBRANCH  16  17
ENDBRANCH   2  16
TORSDOF 5
ENDMDL
MODEL 4
REMARK VINA RESULT:      -9.0      2.727      4.926
REMARK  Name = 4495
REMARK  5 active torsions:
REMARK  status: ('A' for Active; 'I' for Inactive)
REMARK    1  A    between atoms: C_1  and  N_10
REMARK    2  A    between atoms: C_2  and  O_16
REMARK    3  A    between atoms: C_5  and  N_9
REMARK    4  A    between atoms: N_10  and  S_12
REMARK    5  A    between atoms: O_16  and  C_17
REMARK                            x       y       z     vdW  Elec       q    Type
REMARK                         _______ _______ _______ _____ _____    ______ ____
ROOT
ATOM      1  C   UNL     1      35.297 -23.168 -14.495  0.00  0.00    +0.099 C 
ATOM      2  C   UNL     1      33.997 -23.493 -14.882  0.00  0.00    +0.161 C 
ATOM      3  C   UNL     1      36.204 -22.681 -15.436  0.00  0.00    +0.021 C 
ATOM      4  C   UNL     1      33.605 -23.332 -16.211  0.00  0.00    +0.063 C 
ATOM      5  C   UNL     1      34.511 -22.846 -17.152  0.00  0.00    +0.146 C 
ATOM      6  C   UNL     1      35.812 -22.520 -16.764  0.00  0.00    +0.026 C 
ENDROOT
BRANCH   5   9
ATOM      7  O   UNL     1      34.980 -22.759 -19.409  0.00  0.00    -0.126 OA
ATOM      8  O   UNL     1      32.903 -22.468 -18.761  0.00  0.00    -0.126 OA
ATOM      9  N   UNL     1      34.112 -22.683 -18.505  0.00  0.00    +0.058 N 
ENDBRANCH   5   9
BRANCH   1  10
ATOM     10  N   UNL     1      35.715 -23.330 -13.137  0.00  0.00    -0.216 N 
ATOM     11  H   UNL     1      35.593 -22.607 -12.480  0.00  0.00    +0.173 HD
BRANCH  10  12
ATOM     12  S   UNL     1      36.436 -24.825 -12.682  0.00  0.00    +0.056 S 
ATOM     13  O   UNL     1      35.839 -25.260 -11.434  0.00  0.00    -0.154 OA
ATOM     14  O   UNL     1      36.519 -25.727 -13.814  0.00  0.00    -0.154 OA
ATOM     15  C   UNL     1      38.085 -24.276 -12.302  0.00  0.00    +0.200 C 
ENDBRANCH  10  12
ENDBRANCH   1  10
BRANCH   2  16
ATOM     16  O   UNL     1      33.096 -23.971 -13.977  0.00  0.00    -0.452 OA
BRANCH  16  17
ATOM     17  C   UNL     1      31.764 -23.994 -14.348  0.00  0.00    +0.145 C 
ATOM     18  C   UNL     1      31.124 -22.802 -14.641  0.00  0.00    +0.037 C 
ATOM     19  C   UNL     1      31.103 -25.208 -14.419  0.00  0.00    +0.037 C 
ATOM     20  C   UNL     1      29.780 -22.825 -15.015  0.00  0.00    +0.003 C 
ATOM     21  C   UNL     1      29.760 -25.231 -14.793  0.00  0.00    +0.003 C 
ATOM     22  C   UNL     1      29.098 -24.040 -15.090  0.00  0.00    +0.000 C 
ENDBRANCH  16  17
ENDBRANCH   2  16
TORSDOF 5
ENDMDL
MODEL 5
REMARK VINA RESULT:      -8.8      2.556      5.280
REMARK  Name = 4495
REMARK  5 active torsions:
REMARK  status: ('A' for Active; 'I' for Inactive)
REMARK    1  A    between atoms: C_1  and  N_10
REMARK    2  A    between atoms: C_2  and  O_16
REMARK    3  A    between atoms: C_5  and  N_9
REMARK    4  A    between atoms: N_10  and  S_12
REMARK    5  A    between atoms: O_16  and  C_17
REMARK                            x       y       z     vdW  Elec       q    Type
REMARK                         _______ _______ _______ _____ _____    ______ ____
ROOT
ATOM      1  C   UNL     1      34.311 -23.861 -13.902  0.00  0.00    +0.099 C 
ATOM      2  C   UNL     1      34.897 -24.202 -15.120  0.00  0.00    +0.161 C 
ATOM      3  C   UNL     1      34.915 -24.247 -12.705  0.00  0.00    +0.021 C 
ATOM      4  C   UNL     1      36.087 -24.930 -15.143  0.00  0.00    +0.063 C 
ATOM      5  C   UNL     1      36.691 -25.317 -13.947  0.00  0.00    +0.146 C 
ATOM      6  C   UNL     1      36.105 -24.975 -12.728  0.00  0.00    +0.026 C 
ENDROOT
BRANCH   5   9
ATOM      7  O   UNL     1      37.919 -27.175 -14.544  0.00  0.00    -0.126 OA
ATOM      8  O   UNL     1      38.919 -25.580 -13.416  0.00  0.00    -0.126 OA
ATOM      9  N   UNL     1      37.901 -26.059 -13.970  0.00  0.00    +0.058 N 
ENDBRANCH   5   9
BRANCH   1  10
ATOM     10  N   UNL     1      33.091 -23.117 -13.863  0.00  0.00    -0.216 N 
ATOM     11  H   UNL     1      33.097 -22.133 -13.889  0.00  0.00    +0.173 HD
BRANCH  10  12
ATOM     12  S   UNL     1      31.610 -23.991 -13.770  0.00  0.00    +0.056 S 
ATOM     13  O   UNL     1      31.890 -25.392 -14.023  0.00  0.00    -0.154 OA
ATOM     14  O   UNL     1      30.843 -23.590 -12.607  0.00  0.00    -0.154 OA
ATOM     15  C   UNL     1      30.783 -23.361 -15.214  0.00  0.00    +0.200 C 
ENDBRANCH  10  12
ENDBRANCH   1  10
BRANCH   2  16
ATOM     16  O   UNL     1      34.321 -23.835 -16.301  0.00  0.00    -0.452 OA
BRANCH  16  17
ATOM     17  C   UNL     1      35.029 -22.972 -17.118  0.00  0.00    +0.145 C 
ATOM     18  C   UNL     1      36.230 -22.450 -16.671  0.00  0.00    +0.037 C 
ATOM     19  C   UNL     1      34.518 -22.651 -18.364  0.00  0.00    +0.037 C 
ATOM     20  C   UNL     1      36.942 -21.579 -17.496  0.00  0.00    +0.003 C 
ATOM     21  C   UNL     1      35.230 -21.781 -19.189  0.00  0.00    +0.003 C 
ATOM     22  C   UNL     1      36.443 -21.244 -18.754  0.00  0.00    +0.000 C 
ENDBRANCH  16  17
ENDBRANCH   2  16
TORSDOF 5
ENDMDL
MODEL 6
REMARK VINA RESULT:      -8.7      2.232      5.311
REMARK  Name = 4495
REMARK  5 active torsions:
REMARK  status: ('A' for Active; 'I' for Inactive)
REMARK    1  A    between atoms: C_1  and  N_10
REMARK    2  A    between atoms: C_2  and  O_16
REMARK    3  A    between atoms: C_5  and  N_9
REMARK    4  A    between atoms: N_10  and  S_12
REMARK    5  A    between atoms: O_16  and  C_17
REMARK                            x       y       z     vdW  Elec       q    Type
REMARK                         _______ _______ _______ _____ _____    ______ ____
ROOT
ATOM      1  C   UNL     1      33.537 -23.120 -16.436  0.00  0.00    +0.099 C 
ATOM      2  C   UNL     1      33.849 -23.369 -15.099  0.00  0.00    +0.161 C 
ATOM      3  C   UNL     1      32.230 -23.290 -16.890  0.00  0.00    +0.021 C 
ATOM      4  C   UNL     1      32.853 -23.789 -14.217  0.00  0.00    +0.063 C 
ATOM      5  C   UNL     1      31.546 -23.959 -14.671  0.00  0.00    +0.146 C 
ATOM      6  C   UNL     1      31.234 -23.710 -16.008  0.00  0.00    +0.026 C 
ENDROOT
BRANCH   5   9
ATOM      7  O   UNL     1      29.527 -24.984 -14.231  0.00  0.00    -0.126 OA
ATOM      8  O   UNL     1      30.670 -24.159 -12.548  0.00  0.00    -0.126 OA
ATOM      9  N   UNL     1      30.533 -24.388 -13.773  0.00  0.00    +0.058 N 
ENDBRANCH   5   9
BRANCH   1  10
ATOM     10  N   UNL     1      34.548 -22.691 -17.352  0.00  0.00    -0.216 N 
ATOM     11  H   UNL     1      35.471 -22.531 -17.050  0.00  0.00    +0.173 HD
BRANCH  10  12
ATOM     12  S   UNL     1      34.104 -22.464 -19.000  0.00  0.00    +0.056 S 
ATOM     13  O   UNL     1      34.021 -23.766 -19.635  0.00  0.00    -0.154 OA
ATOM     14  O   UNL     1      33.015 -21.515 -19.119  0.00  0.00    -0.154 OA
ATOM     15  C   UNL     1      35.579 -21.683 -19.617  0.00  0.00    +0.200 C 
ENDBRANCH  10  12
ENDBRANCH   1  10
BRANCH   2  16
ATOM     16  O   UNL     1      35.122 -23.209 -14.636  0.00  0.00    -0.452 OA
BRANCH  16  17
ATOM     17  C   UNL     1      35.823 -24.348 -14.280  0.00  0.00    +0.145 C 
ATOM     18  C   UNL     1      36.234 -24.505 -12.969  0.00  0.00    +0.037 C 
ATOM     19  C   UNL     1      36.095 -25.302 -15.245  0.00  0.00    +0.037 C 
ATOM     20  C   UNL     1      36.941 -25.652 -12.610  0.00  0.00    +0.003 C 
ATOM     21  C   UNL     1      36.802 -26.450 -14.886  0.00  0.00    +0.003 C 
ATOM     22  C   UNL     1      37.225 -26.625 -13.569  0.00  0.00    +0.000 C 
ENDBRANCH  16  17
ENDBRANCH   2  16
TORSDOF 5
ENDMDL
MODEL 7
REMARK VINA RESULT:      -8.7      2.875      5.656
REMARK  Name = 4495
REMARK  5 active torsions:
REMARK  status: ('A' for Active; 'I' for Inactive)
REMARK    1  A    between atoms: C_1  and  N_10
REMARK    2  A    between atoms: C_2  and  O_16
REMARK    3  A    between atoms: C_5  and  N_9
REMARK    4  A    between atoms: N_10  and  S_12
REMARK    5  A    between atoms: O_16  and  C_17
REMARK                            x       y       z     vdW  Elec       q    Type
REMARK                         _______ _______ _______ _____ _____    ______ ____
ROOT
ATOM      1  C   UNL     1      35.869 -25.106 -14.974  0.00  0.00    +0.099 C 
ATOM      2  C   UNL     1      36.616 -23.959 -15.237  0.00  0.00    +0.161 C 
ATOM      3  C   UNL     1      36.516 -26.312 -14.703  0.00  0.00    +0.021 C 
ATOM      4  C   UNL     1      38.010 -24.017 -15.231  0.00  0.00    +0.063 C 
ATOM      5  C   UNL     1      38.657 -25.222 -14.961  0.00  0.00    +0.146 C 
ATOM      6  C   UNL     1      37.909 -26.370 -14.697  0.00  0.00    +0.026 C 
ENDROOT
BRANCH   5   9
ATOM      7  O   UNL     1      40.710 -24.605 -14.110  0.00  0.00    -0.126 OA
ATOM      8  O   UNL     1      40.656 -26.008 -15.798  0.00  0.00    -0.126 OA
ATOM      9  N   UNL     1      40.075 -25.281 -14.956  0.00  0.00    +0.058 N 
ENDBRANCH   5   9
BRANCH   1  10
ATOM     10  N   UNL     1      34.440 -25.063 -14.979  0.00  0.00    -0.216 N 
ATOM     11  H   UNL     1      33.923 -25.477 -15.707  0.00  0.00    +0.173 HD
BRANCH  10  12
ATOM     12  S   UNL     1      33.648 -24.268 -13.673  0.00  0.00    +0.056 S 
ATOM     13  O   UNL     1      33.378 -22.899 -14.068  0.00  0.00    -0.154 OA
ATOM     14  O   UNL     1      32.595 -25.098 -13.121  0.00  0.00    -0.154 OA
ATOM     15  C   UNL     1      34.975 -24.211 -12.489  0.00  0.00    +0.200 C 
ENDBRANCH  10  12
ENDBRANCH   1  10
BRANCH   2  16
ATOM     16  O   UNL     1      36.002 -22.771 -15.504  0.00  0.00    -0.452 OA
BRANCH  16  17
ATOM     17  C   UNL     1      35.794 -22.440 -16.831  0.00  0.00    +0.145 C 
ATOM     18  C   UNL     1      34.588 -22.763 -17.427  0.00  0.00    +0.037 C 
ATOM     19  C   UNL     1      36.798 -21.795 -17.531  0.00  0.00    +0.037 C 
ATOM     20  C   UNL     1      34.379 -22.430 -18.765  0.00  0.00    +0.003 C 
ATOM     21  C   UNL     1      36.589 -21.462 -18.870  0.00  0.00    +0.003 C 
ATOM     22  C   UNL     1      35.380 -21.780 -19.487  0.00  0.00    +0.000 C 
ENDBRANCH  16  17
ENDBRANCH   2  16
TORSDOF 5
ENDMDL
MODEL 8
REMARK VINA RESULT:      -8.0      1.584      2.310
REMARK  Name = 4495
REMARK  5 active torsions:
REMARK  status: ('A' for Active; 'I' for Inactive)
REMARK    1  A    between atoms: C_1  and  N_10
REMARK    2  A    between atoms: C_2  and  O_16
REMARK    3  A    between atoms: C_5  and  N_9
REMARK    4  A    between atoms: N_10  and  S_12
REMARK    5  A    between atoms: O_16  and  C_17
REMARK                            x       y       z     vdW  Elec       q    Type
REMARK                         _______ _______ _______ _____ _____    ______ ____
ROOT
ATOM      1  C   UNL     1      33.037 -24.315 -14.378  0.00  0.00    +0.099 C 
ATOM      2  C   UNL     1      33.041 -23.882 -15.704  0.00  0.00    +0.161 C 
ATOM      3  C   UNL     1      31.914 -24.103 -13.579  0.00  0.00    +0.021 C 
ATOM      4  C   UNL     1      31.923 -23.235 -16.230  0.00  0.00    +0.063 C 
ATOM      5  C   UNL     1      30.800 -23.022 -15.431  0.00  0.00    +0.146 C 
ATOM      6  C   UNL     1      30.796 -23.456 -14.105  0.00  0.00    +0.026 C 
ENDROOT
BRANCH   5   9
ATOM      7  O   UNL     1      29.559 -22.241 -17.211  0.00  0.00    -0.126 OA
ATOM      8  O   UNL     1      28.792 -21.919 -15.180  0.00  0.00    -0.126 OA
ATOM      9  N   UNL     1      29.662 -22.363 -15.966  0.00  0.00    +0.058 N 
ENDBRANCH   5   9
BRANCH   1  10
ATOM     10  N   UNL     1      34.177 -24.977 -13.824  0.00  0.00    -0.216 N 
ATOM     11  H   UNL     1      34.305 -25.947 -13.940  0.00  0.00    +0.173 HD
BRANCH  10  12
ATOM     12  S   UNL     1      35.320 -24.032 -12.950  0.00  0.00    +0.056 S 
ATOM     13  O   UNL     1      35.856 -23.022 -13.843  0.00  0.00    -0.154 OA
ATOM     14  O   UNL     1      34.801 -23.664 -11.647  0.00  0.00    -0.154 OA
ATOM     15  C   UNL     1      36.604 -25.238 -12.706  0.00  0.00    +0.200 C 
ENDBRANCH  10  12
ENDBRANCH   1  10
BRANCH   2  16
ATOM     16  O   UNL     1      34.130 -24.080 -16.501  0.00  0.00    -0.452 OA
BRANCH  16  17
ATOM     17  C   UNL     1      34.390 -23.135 -17.478  0.00  0.00    +0.145 C 
ATOM     18  C   UNL     1      35.611 -22.484 -17.480  0.00  0.00    +0.037 C 
ATOM     19  C   UNL     1      33.423 -22.865 -18.429  0.00  0.00    +0.037 C 
ATOM     20  C   UNL     1      35.873 -21.531 -18.465  0.00  0.00    +0.003 C 
ATOM     21  C   UNL     1      33.684 -21.912 -19.414  0.00  0.00    +0.003 C 
ATOM     22  C   UNL     1      34.909 -21.245 -19.432  0.00  0.00    +0.000 C 
ENDBRANCH  16  17
ENDBRANCH   2  16
TORSDOF 5
ENDMDL
MODEL 9
REMARK VINA RESULT:      -8.0     14.044     16.751
REMARK  Name = 4495
REMARK  5 active torsions:
REMARK  status: ('A' for Active; 'I' for Inactive)
REMARK    1  A    between atoms: C_1  and  N_10
REMARK    2  A    between atoms: C_2  and  O_16
REMARK    3  A    between atoms: C_5  and  N_9
REMARK    4  A    between atoms: N_10  and  S_12
REMARK    5  A    between atoms: O_16  and  C_17
REMARK                            x       y       z     vdW  Elec       q    Type
REMARK                         _______ _______ _______ _____ _____    ______ ____
ROOT
ATOM      1  C   UNL     1      33.131  -7.201 -23.150  0.00  0.00    +0.099 C 
ATOM      2  C   UNL     1      32.566  -8.471 -23.040  0.00  0.00    +0.161 C 
ATOM      3  C   UNL     1      34.283  -7.014 -23.915  0.00  0.00    +0.021 C 
ATOM      4  C   UNL     1      33.153  -9.554 -23.693  0.00  0.00    +0.063 C 
ATOM      5  C   UNL     1      34.304  -9.369 -24.457  0.00  0.00    +0.146 C 
ATOM      6  C   UNL     1      34.870  -8.098 -24.568  0.00  0.00    +0.026 C 
ENDROOT
BRANCH   5   9
ATOM      7  O   UNL     1      34.398 -11.613 -24.980  0.00  0.00    -0.126 OA
ATOM      8  O   UNL     1      35.920 -10.278 -25.827  0.00  0.00    -0.126 OA
ATOM      9  N   UNL     1      34.903 -10.472 -25.120  0.00  0.00    +0.058 N 
ENDBRANCH   5   9
BRANCH   1  10
ATOM     10  N   UNL     1      32.542  -6.080 -22.485  0.00  0.00    -0.216 N 
ATOM     11  H   UNL     1      32.944  -5.708 -21.667  0.00  0.00    +0.173 HD
BRANCH  10  12
ATOM     12  S   UNL     1      31.111  -5.399 -23.157  0.00  0.00    +0.056 S 
ATOM     13  O   UNL     1      30.952  -5.907 -24.506  0.00  0.00    -0.154 OA
ATOM     14  O   UNL     1      30.013  -5.460 -22.212  0.00  0.00    -0.154 OA
ATOM     15  C   UNL     1      31.611  -3.697 -23.303  0.00  0.00    +0.200 C 
ENDBRANCH  10  12
ENDBRANCH   1  10
BRANCH   2  16
ATOM     16  O   UNL     1      31.440  -8.673 -22.297  0.00  0.00    -0.452 OA
BRANCH  16  17
ATOM     17  C   UNL     1      31.497  -9.622 -21.292  0.00  0.00    +0.145 C 
ATOM     18  C   UNL     1      31.094 -10.918 -21.563  0.00  0.00    +0.037 C 
ATOM     19  C   UNL     1      31.956  -9.253 -20.040  0.00  0.00    +0.037 C 
ATOM     20  C   UNL     1      31.151 -11.874 -20.550  0.00  0.00    +0.003 C 
ATOM     21  C   UNL     1      32.013 -10.209 -19.026  0.00  0.00    +0.003 C 
ATOM     22  C   UNL     1      31.610 -11.520 -19.281  0.00  0.00    +0.000 C 
ENDBRANCH  16  17
ENDBRANCH   2  16
TORSDOF 5
ENDMDL
