MODEL 1
REMARK VINA RESULT:      -7.9      0.000      0.000
REMARK  Name = 155448
REMARK  14 active torsions:
REMARK  status: ('A' for Active; 'I' for Inactive)
REMARK    1  A    between atoms: C_2  and  O_7
REMARK    2  A    between atoms: C_3  and  O_9
REMARK    3  A    between atoms: C_4  and  O_11
REMARK    4  A    between atoms: C_5  and  C_23
REMARK    5  A    between atoms: C_6  and  O_13
REMARK    6  A    between atoms: O_13  and  C_14
REMARK    7  A    between atoms: C_14  and  C_15
REMARK    8  A    between atoms: C_15  and  C_16
REMARK    9  A    between atoms: C_16  and  C_17
REMARK   10  A    between atoms: C_17  and  C_18
REMARK   11  A    between atoms: C_18  and  C_19
REMARK   12  A    between atoms: C_19  and  C_20
REMARK   13  A    between atoms: C_20  and  C_21
REMARK   14  A    between atoms: C_23  and  O_24
REMARK                            x       y       z     vdW  Elec       q    Type
REMARK                         _______ _______ _______ _____ _____    ______ ____
ROOT
ATOM      1  O   UNL     1      36.099 -23.698 -13.903  0.00  0.00    -0.326 OA
ATOM      2  C   UNL     1      37.328 -26.293 -13.939  0.00  0.00    +0.172 C 
ATOM      3  C   UNL     1      37.695 -25.227 -12.908  0.00  0.00    +0.169 C 
ATOM      4  C   UNL     1      36.708 -25.666 -15.188  0.00  0.00    +0.196 C 
ATOM      5  C   UNL     1      36.519 -24.277 -12.665  0.00  0.00    +0.176 C 
ATOM      6  C   UNL     1      35.608 -24.670 -14.823  0.00  0.00    +0.266 C 
ENDROOT
BRANCH   2   7
ATOM      7  O   UNL     1      38.522 -26.990 -14.299  0.00  0.00    -0.379 OA
ATOM      8  H   UNL     1      38.469 -27.906 -13.983  0.00  0.00    +0.211 HD
ENDBRANCH   2   7
BRANCH   3   9
ATOM      9  O   UNL     1      38.049 -25.860 -11.680  0.00  0.00    -0.379 OA
ATOM     10  H   UNL     1      38.957 -25.616 -11.441  0.00  0.00    +0.211 HD
ENDBRANCH   3   9
BRANCH   4  11
ATOM     11  O   UNL     1      36.134 -26.691 -15.998  0.00  0.00    -0.378 OA
ATOM     12  H   UNL     1      35.364 -27.068 -15.545  0.00  0.00    +0.211 HD
ENDBRANCH   4  11
BRANCH   6  13
ATOM     13  O   UNL     1      35.182 -24.026 -16.022  0.00  0.00    -0.329 OA
BRANCH  13  14
ATOM     14  C   UNL     1      33.855 -23.533 -15.908  0.00  0.00    +0.145 C 
BRANCH  14  15
ATOM     15  C   UNL     1      33.315 -23.171 -17.286  0.00  0.00    +0.032 C 
BRANCH  15  16
ATOM     16  C   UNL     1      34.354 -22.437 -18.140  0.00  0.00    +0.003 C 
BRANCH  16  17
ATOM     17  C   UNL     1      33.851 -22.234 -19.572  0.00  0.00    +0.000 C 
BRANCH  17  18
ATOM     18  C   UNL     1      33.092 -20.913 -19.710  0.00  0.00    +0.000 C 
BRANCH  18  19
ATOM     19  C   UNL     1      33.619 -20.022 -20.839  0.00  0.00    +0.000 C 
BRANCH  19  20
ATOM     20  C   UNL     1      35.111 -19.679 -20.779  0.00  0.00    +0.000 C 
BRANCH  20  21
ATOM     21  C   UNL     1      35.590 -18.836 -21.960  0.00  0.00    +0.000 C 
ATOM     22  C   UNL     1      34.704 -19.037 -23.180  0.00  0.00    +0.000 C 
ENDBRANCH  20  21
ENDBRANCH  19  20
ENDBRANCH  18  19
ENDBRANCH  17  18
ENDBRANCH  16  17
ENDBRANCH  15  16
ENDBRANCH  14  15
ENDBRANCH  13  14
ENDBRANCH   6  13
BRANCH   5  23
ATOM     23  C   UNL     1      36.899 -23.135 -11.729  0.00  0.00    +0.169 C 
BRANCH  23  24
ATOM     24  O   UNL     1      38.309 -23.008 -11.721  0.00  0.00    -0.379 OA
ATOM     25  H   UNL     1      38.621 -22.808 -12.617  0.00  0.00    +0.211 HD
ENDBRANCH  23  24
ENDBRANCH   5  23
TORSDOF 14
ENDMDL
MODEL 2
REMARK VINA RESULT:      -7.9      1.811      2.183
REMARK  Name = 155448
REMARK  14 active torsions:
REMARK  status: ('A' for Active; 'I' for Inactive)
REMARK    1  A    between atoms: C_2  and  O_7
REMARK    2  A    between atoms: C_3  and  O_9
REMARK    3  A    between atoms: C_4  and  O_11
REMARK    4  A    between atoms: C_5  and  C_23
REMARK    5  A    between atoms: C_6  and  O_13
REMARK    6  A    between atoms: O_13  and  C_14
REMARK    7  A    between atoms: C_14  and  C_15
REMARK    8  A    between atoms: C_15  and  C_16
REMARK    9  A    between atoms: C_16  and  C_17
REMARK   10  A    between atoms: C_17  and  C_18
REMARK   11  A    between atoms: C_18  and  C_19
REMARK   12  A    between atoms: C_19  and  C_20
REMARK   13  A    between atoms: C_20  and  C_21
REMARK   14  A    between atoms: C_23  and  O_24
REMARK                            x       y       z     vdW  Elec       q    Type
REMARK                         _______ _______ _______ _____ _____    ______ ____
ROOT
ATOM      1  O   UNL     1      36.745 -23.495 -14.238  0.00  0.00    -0.326 OA
ATOM      2  C   UNL     1      38.370 -25.817 -13.774  0.00  0.00    +0.172 C 
ATOM      3  C   UNL     1      37.336 -25.325 -12.762  0.00  0.00    +0.169 C 
ATOM      4  C   UNL     1      38.802 -24.693 -14.715  0.00  0.00    +0.196 C 
ATOM      5  C   UNL     1      36.205 -24.569 -13.465  0.00  0.00    +0.176 C 
ATOM      6  C   UNL     1      37.595 -23.951 -15.288  0.00  0.00    +0.266 C 
ENDROOT
BRANCH   2   7
ATOM      7  O   UNL     1      39.505 -26.294 -13.050  0.00  0.00    -0.379 OA
ATOM      8  H   UNL     1      40.269 -26.345 -13.646  0.00  0.00    +0.211 HD
ENDBRANCH   2   7
BRANCH   3   9
ATOM      9  O   UNL     1      36.791 -26.442 -12.063  0.00  0.00    -0.379 OA
ATOM     10  H   UNL     1      36.193 -26.931 -12.651  0.00  0.00    +0.211 HD
ENDBRANCH   3   9
BRANCH   4  11
ATOM     11  O   UNL     1      39.546 -25.244 -15.802  0.00  0.00    -0.378 OA
ATOM     12  H   UNL     1      40.460 -25.402 -15.521  0.00  0.00    +0.211 HD
ENDBRANCH   4  11
BRANCH   6  13
ATOM     13  O   UNL     1      38.078 -22.835 -16.035  0.00  0.00    -0.329 OA
BRANCH  13  14
ATOM     14  C   UNL     1      37.046 -21.895 -16.295  0.00  0.00    +0.145 C 
BRANCH  14  15
ATOM     15  C   UNL     1      36.847 -21.746 -17.799  0.00  0.00    +0.032 C 
BRANCH  15  16
ATOM     16  C   UNL     1      35.424 -22.114 -18.233  0.00  0.00    +0.003 C 
BRANCH  16  17
ATOM     17  C   UNL     1      35.051 -21.426 -19.549  0.00  0.00    +0.000 C 
BRANCH  17  18
ATOM     18  C   UNL     1      33.534 -21.291 -19.693  0.00  0.00    +0.000 C 
BRANCH  18  19
ATOM     19  C   UNL     1      33.105 -20.083 -20.531  0.00  0.00    +0.000 C 
BRANCH  19  20
ATOM     20  C   UNL     1      34.237 -19.174 -21.022  0.00  0.00    +0.000 C 
BRANCH  20  21
ATOM     21  C   UNL     1      34.543 -19.333 -22.510  0.00  0.00    +0.000 C 
ATOM     22  C   UNL     1      35.558 -18.300 -22.981  0.00  0.00    +0.000 C 
ENDBRANCH  20  21
ENDBRANCH  19  20
ENDBRANCH  18  19
ENDBRANCH  17  18
ENDBRANCH  16  17
ENDBRANCH  15  16
ENDBRANCH  14  15
ENDBRANCH  13  14
ENDBRANCH   6  13
BRANCH   5  23
ATOM     23  C   UNL     1      35.222 -23.967 -12.466  0.00  0.00    +0.169 C 
BRANCH  23  24
ATOM     24  O   UNL     1      34.533 -25.021 -11.819  0.00  0.00    -0.379 OA
ATOM     25  H   UNL     1      34.935 -25.188 -10.953  0.00  0.00    +0.211 HD
ENDBRANCH  23  24
ENDBRANCH   5  23
TORSDOF 14
ENDMDL
MODEL 3
REMARK VINA RESULT:      -7.8      1.224      2.534
REMARK  Name = 155448
REMARK  14 active torsions:
REMARK  status: ('A' for Active; 'I' for Inactive)
REMARK    1  A    between atoms: C_2  and  O_7
REMARK    2  A    between atoms: C_3  and  O_9
REMARK    3  A    between atoms: C_4  and  O_11
REMARK    4  A    between atoms: C_5  and  C_23
REMARK    5  A    between atoms: C_6  and  O_13
REMARK    6  A    between atoms: O_13  and  C_14
REMARK    7  A    between atoms: C_14  and  C_15
REMARK    8  A    between atoms: C_15  and  C_16
REMARK    9  A    between atoms: C_16  and  C_17
REMARK   10  A    between atoms: C_17  and  C_18
REMARK   11  A    between atoms: C_18  and  C_19
REMARK   12  A    between atoms: C_19  and  C_20
REMARK   13  A    between atoms: C_20  and  C_21
REMARK   14  A    between atoms: C_23  and  O_24
REMARK                            x       y       z     vdW  Elec       q    Type
REMARK                         _______ _______ _______ _____ _____    ______ ____
ROOT
ATOM      1  O   UNL     1      36.624 -24.889 -15.363  0.00  0.00    -0.326 OA
ATOM      2  C   UNL     1      35.578 -24.441 -12.726  0.00  0.00    +0.172 C 
ATOM      3  C   UNL     1      36.790 -25.335 -12.987  0.00  0.00    +0.169 C 
ATOM      4  C   UNL     1      34.717 -24.297 -13.981  0.00  0.00    +0.196 C 
ATOM      5  C   UNL     1      37.527 -24.897 -14.255  0.00  0.00    +0.176 C 
ATOM      6  C   UNL     1      35.568 -23.946 -15.202  0.00  0.00    +0.266 C 
ENDROOT
BRANCH   2   7
ATOM      7  O   UNL     1      34.804 -25.038 -11.685  0.00  0.00    -0.379 OA
ATOM      8  H   UNL     1      33.860 -24.950 -11.894  0.00  0.00    +0.211 HD
ENDBRANCH   2   7
BRANCH   3   9
ATOM      9  O   UNL     1      37.681 -25.257 -11.876  0.00  0.00    -0.379 OA
ATOM     10  H   UNL     1      38.373 -25.929 -11.969  0.00  0.00    +0.211 HD
ENDBRANCH   3   9
BRANCH   4  11
ATOM     11  O   UNL     1      33.764 -23.253 -13.785  0.00  0.00    -0.378 OA
ATOM     12  H   UNL     1      33.217 -23.456 -13.010  0.00  0.00    +0.211 HD
ENDBRANCH   4  11
BRANCH   6  13
ATOM     13  O   UNL     1      34.720 -23.970 -16.350  0.00  0.00    -0.329 OA
BRANCH  13  14
ATOM     14  C   UNL     1      34.836 -22.776 -17.110  0.00  0.00    +0.145 C 
BRANCH  14  15
ATOM     15  C   UNL     1      33.781 -22.756 -18.209  0.00  0.00    +0.032 C 
BRANCH  15  16
ATOM     16  C   UNL     1      34.182 -21.852 -19.380  0.00  0.00    +0.003 C 
BRANCH  16  17
ATOM     17  C   UNL     1      33.051 -20.887 -19.747  0.00  0.00    +0.000 C 
BRANCH  17  18
ATOM     18  C   UNL     1      33.535 -19.815 -20.726  0.00  0.00    +0.000 C 
BRANCH  18  19
ATOM     19  C   UNL     1      35.034 -19.900 -21.030  0.00  0.00    +0.000 C 
BRANCH  19  20
ATOM     20  C   UNL     1      35.646 -18.677 -21.722  0.00  0.00    +0.000 C 
BRANCH  20  21
ATOM     21  C   UNL     1      34.833 -18.183 -22.917  0.00  0.00    +0.000 C 
ATOM     22  C   UNL     1      34.900 -19.166 -24.077  0.00  0.00    +0.000 C 
ENDBRANCH  20  21
ENDBRANCH  19  20
ENDBRANCH  18  19
ENDBRANCH  17  18
ENDBRANCH  16  17
ENDBRANCH  15  16
ENDBRANCH  14  15
ENDBRANCH  13  14
ENDBRANCH   6  13
BRANCH   5  23
ATOM     23  C   UNL     1      38.671 -25.844 -14.601  0.00  0.00    +0.169 C 
BRANCH  23  24
ATOM     24  O   UNL     1      38.162 -27.164 -14.656  0.00  0.00    -0.379 OA
ATOM     25  H   UNL     1      38.150 -27.544 -13.763  0.00  0.00    +0.211 HD
ENDBRANCH  23  24
ENDBRANCH   5  23
TORSDOF 14
ENDMDL
MODEL 4
REMARK VINA RESULT:      -7.7      3.729      5.853
REMARK  Name = 155448
REMARK  14 active torsions:
REMARK  status: ('A' for Active; 'I' for Inactive)
REMARK    1  A    between atoms: C_2  and  O_7
REMARK    2  A    between atoms: C_3  and  O_9
REMARK    3  A    between atoms: C_4  and  O_11
REMARK    4  A    between atoms: C_5  and  C_23
REMARK    5  A    between atoms: C_6  and  O_13
REMARK    6  A    between atoms: O_13  and  C_14
REMARK    7  A    between atoms: C_14  and  C_15
REMARK    8  A    between atoms: C_15  and  C_16
REMARK    9  A    between atoms: C_16  and  C_17
REMARK   10  A    between atoms: C_17  and  C_18
REMARK   11  A    between atoms: C_18  and  C_19
REMARK   12  A    between atoms: C_19  and  C_20
REMARK   13  A    between atoms: C_20  and  C_21
REMARK   14  A    between atoms: C_23  and  O_24
REMARK                            x       y       z     vdW  Elec       q    Type
REMARK                         _______ _______ _______ _____ _____    ______ ____
ROOT
ATOM      1  O   UNL     1      30.822 -23.253 -16.279  0.00  0.00    -0.326 OA
ATOM      2  C   UNL     1      30.776 -25.019 -14.015  0.00  0.00    +0.172 C 
ATOM      3  C   UNL     1      29.503 -24.431 -14.623  0.00  0.00    +0.169 C 
ATOM      4  C   UNL     1      31.998 -24.170 -14.363  0.00  0.00    +0.196 C 
ATOM      5  C   UNL     1      29.701 -24.123 -16.109  0.00  0.00    +0.176 C 
ATOM      6  C   UNL     1      32.046 -23.849 -15.857  0.00  0.00    +0.266 C 
ENDROOT
BRANCH   2   7
ATOM      7  O   UNL     1      30.612 -25.058 -12.597  0.00  0.00    -0.379 OA
ATOM      8  H   UNL     1      30.692 -24.160 -12.238  0.00  0.00    +0.211 HD
ENDBRANCH   2   7
BRANCH   3   9
ATOM      9  O   UNL     1      28.435 -25.365 -14.475  0.00  0.00    -0.379 OA
ATOM     10  H   UNL     1      28.369 -25.909 -15.275  0.00  0.00    +0.211 HD
ENDBRANCH   3   9
BRANCH   4  11
ATOM     11  O   UNL     1      33.185 -24.884 -14.020  0.00  0.00    -0.378 OA
ATOM     12  H   UNL     1      33.767 -24.936 -14.794  0.00  0.00    +0.211 HD
ENDBRANCH   4  11
BRANCH   6  13
ATOM     13  O   UNL     1      33.125 -22.941 -16.077  0.00  0.00    -0.329 OA
BRANCH  13  14
ATOM     14  C   UNL     1      33.801 -23.220 -17.294  0.00  0.00    +0.145 C 
BRANCH  14  15
ATOM     15  C   UNL     1      33.196 -22.396 -18.425  0.00  0.00    +0.032 C 
BRANCH  15  16
ATOM     16  C   UNL     1      34.268 -21.725 -19.289  0.00  0.00    +0.003 C 
BRANCH  16  17
ATOM     17  C   UNL     1      33.668 -20.609 -20.149  0.00  0.00    +0.000 C 
BRANCH  17  18
ATOM     18  C   UNL     1      34.751 -19.885 -20.951  0.00  0.00    +0.000 C 
BRANCH  18  19
ATOM     19  C   UNL     1      34.210 -19.146 -22.179  0.00  0.00    +0.000 C 
BRANCH  19  20
ATOM     20  C   UNL     1      35.199 -18.950 -23.332  0.00  0.00    +0.000 C 
BRANCH  20  21
ATOM     21  C   UNL     1      34.523 -18.668 -24.673  0.00  0.00    +0.000 C 
ATOM     22  C   UNL     1      34.744 -17.228 -25.114  0.00  0.00    +0.000 C 
ENDBRANCH  20  21
ENDBRANCH  19  20
ENDBRANCH  18  19
ENDBRANCH  17  18
ENDBRANCH  16  17
ENDBRANCH  15  16
ENDBRANCH  14  15
ENDBRANCH  13  14
ENDBRANCH   6  13
BRANCH   5  23
ATOM     23  C   UNL     1      28.484 -23.427 -16.709  0.00  0.00    +0.169 C 
BRANCH  23  24
ATOM     24  O   UNL     1      27.752 -24.373 -17.467  0.00  0.00    -0.379 OA
ATOM     25  H   UNL     1      28.239 -25.211 -17.497  0.00  0.00    +0.211 HD
ENDBRANCH  23  24
ENDBRANCH   5  23
TORSDOF 14
ENDMDL
MODEL 5
REMARK VINA RESULT:      -7.6      3.039      5.003
REMARK  Name = 155448
REMARK  14 active torsions:
REMARK  status: ('A' for Active; 'I' for Inactive)
REMARK    1  A    between atoms: C_2  and  O_7
REMARK    2  A    between atoms: C_3  and  O_9
REMARK    3  A    between atoms: C_4  and  O_11
REMARK    4  A    between atoms: C_5  and  C_23
REMARK    5  A    between atoms: C_6  and  O_13
REMARK    6  A    between atoms: O_13  and  C_14
REMARK    7  A    between atoms: C_14  and  C_15
REMARK    8  A    between atoms: C_15  and  C_16
REMARK    9  A    between atoms: C_16  and  C_17
REMARK   10  A    between atoms: C_17  and  C_18
REMARK   11  A    between atoms: C_18  and  C_19
REMARK   12  A    between atoms: C_19  and  C_20
REMARK   13  A    between atoms: C_20  and  C_21
REMARK   14  A    between atoms: C_23  and  O_24
REMARK                            x       y       z     vdW  Elec       q    Type
REMARK                         _______ _______ _______ _____ _____    ______ ____
ROOT
ATOM      1  O   UNL     1      32.884 -23.520 -15.834  0.00  0.00    -0.326 OA
ATOM      2  C   UNL     1      30.132 -23.453 -15.015  0.00  0.00    +0.172 C 
ATOM      3  C   UNL     1      31.213 -24.160 -14.198  0.00  0.00    +0.169 C 
ATOM      4  C   UNL     1      30.553 -23.301 -16.477  0.00  0.00    +0.196 C 
ATOM      5  C   UNL     1      32.582 -23.518 -14.436  0.00  0.00    +0.176 C 
ATOM      6  C   UNL     1      31.968 -22.735 -16.593  0.00  0.00    +0.266 C 
ENDROOT
BRANCH   2   7
ATOM      7  O   UNL     1      28.940 -24.237 -14.942  0.00  0.00    -0.379 OA
ATOM      8  H   UNL     1      28.216 -23.764 -15.385  0.00  0.00    +0.211 HD
ENDBRANCH   2   7
BRANCH   3   9
ATOM      9  O   UNL     1      30.888 -24.075 -12.813  0.00  0.00    -0.379 OA
ATOM     10  H   UNL     1      31.554 -24.555 -12.295  0.00  0.00    +0.211 HD
ENDBRANCH   3   9
BRANCH   4  11
ATOM     11  O   UNL     1      29.657 -22.408 -17.137  0.00  0.00    -0.378 OA
ATOM     12  H   UNL     1      29.689 -22.566 -18.093  0.00  0.00    +0.211 HD
ENDBRANCH   4  11
BRANCH   6  13
ATOM     13  O   UNL     1      32.339 -22.758 -17.970  0.00  0.00    -0.329 OA
BRANCH  13  14
ATOM     14  C   UNL     1      33.749 -22.832 -18.129  0.00  0.00    +0.145 C 
BRANCH  14  15
ATOM     15  C   UNL     1      34.199 -21.873 -19.225  0.00  0.00    +0.032 C 
BRANCH  15  16
ATOM     16  C   UNL     1      33.019 -21.137 -19.870  0.00  0.00    +0.003 C 
BRANCH  16  17
ATOM     17  C   UNL     1      33.490 -19.891 -20.625  0.00  0.00    +0.000 C 
BRANCH  17  18
ATOM     18  C   UNL     1      35.016 -19.849 -20.726  0.00  0.00    +0.000 C 
BRANCH  18  19
ATOM     19  C   UNL     1      35.525 -19.063 -21.939  0.00  0.00    +0.000 C 
BRANCH  19  20
ATOM     20  C   UNL     1      34.601 -19.047 -23.161  0.00  0.00    +0.000 C 
BRANCH  20  21
ATOM     21  C   UNL     1      35.043 -18.065 -24.245  0.00  0.00    +0.000 C 
ATOM     22  C   UNL     1      34.646 -16.638 -23.895  0.00  0.00    +0.000 C 
ENDBRANCH  20  21
ENDBRANCH  19  20
ENDBRANCH  18  19
ENDBRANCH  17  18
ENDBRANCH  16  17
ENDBRANCH  15  16
ENDBRANCH  14  15
ENDBRANCH  13  14
ENDBRANCH   6  13
BRANCH   5  23
ATOM     23  C   UNL     1      33.695 -24.278 -13.724  0.00  0.00    +0.169 C 
BRANCH  23  24
ATOM     24  O   UNL     1      33.960 -23.640 -12.489  0.00  0.00    -0.379 OA
ATOM     25  H   UNL     1      34.406 -22.794 -12.651  0.00  0.00    +0.211 HD
ENDBRANCH  23  24
ENDBRANCH   5  23
TORSDOF 14
ENDMDL
MODEL 6
REMARK VINA RESULT:      -7.5      1.975      2.726
REMARK  Name = 155448
REMARK  14 active torsions:
REMARK  status: ('A' for Active; 'I' for Inactive)
REMARK    1  A    between atoms: C_2  and  O_7
REMARK    2  A    between atoms: C_3  and  O_9
REMARK    3  A    between atoms: C_4  and  O_11
REMARK    4  A    between atoms: C_5  and  C_23
REMARK    5  A    between atoms: C_6  and  O_13
REMARK    6  A    between atoms: O_13  and  C_14
REMARK    7  A    between atoms: C_14  and  C_15
REMARK    8  A    between atoms: C_15  and  C_16
REMARK    9  A    between atoms: C_16  and  C_17
REMARK   10  A    between atoms: C_17  and  C_18
REMARK   11  A    between atoms: C_18  and  C_19
REMARK   12  A    between atoms: C_19  and  C_20
REMARK   13  A    between atoms: C_20  and  C_21
REMARK   14  A    between atoms: C_23  and  O_24
REMARK                            x       y       z     vdW  Elec       q    Type
REMARK                         _______ _______ _______ _____ _____    ______ ____
ROOT
ATOM      1  O   UNL     1      36.562 -23.436 -14.584  0.00  0.00    -0.326 OA
ATOM      2  C   UNL     1      33.917 -23.944 -13.586  0.00  0.00    +0.172 C 
ATOM      3  C   UNL     1      35.174 -24.262 -12.777  0.00  0.00    +0.169 C 
ATOM      4  C   UNL     1      34.226 -23.873 -15.082  0.00  0.00    +0.196 C 
ATOM      5  C   UNL     1      36.327 -23.338 -13.177  0.00  0.00    +0.176 C 
ATOM      6  C   UNL     1      35.448 -22.996 -15.357  0.00  0.00    +0.266 C 
ENDROOT
BRANCH   2   7
ATOM      7  O   UNL     1      32.964 -24.981 -13.347  0.00  0.00    -0.379 OA
ATOM      8  H   UNL     1      33.243 -25.505 -12.579  0.00  0.00    +0.211 HD
ENDBRANCH   2   7
BRANCH   3   9
ATOM      9  O   UNL     1      34.896 -24.092 -11.388  0.00  0.00    -0.379 OA
ATOM     10  H   UNL     1      35.570 -23.518 -10.992  0.00  0.00    +0.211 HD
ENDBRANCH   3   9
BRANCH   4  11
ATOM     11  O   UNL     1      33.108 -23.312 -15.770  0.00  0.00    -0.378 OA
ATOM     12  H   UNL     1      33.396 -22.973 -16.631  0.00  0.00    +0.211 HD
ENDBRANCH   4  11
BRANCH   6  13
ATOM     13  O   UNL     1      35.756 -23.095 -16.746  0.00  0.00    -0.329 OA
BRANCH  13  14
ATOM     14  C   UNL     1      36.495 -21.969 -17.198  0.00  0.00    +0.145 C 
BRANCH  14  15
ATOM     15  C   UNL     1      36.102 -21.631 -18.631  0.00  0.00    +0.032 C 
BRANCH  15  16
ATOM     16  C   UNL     1      34.697 -22.132 -18.979  0.00  0.00    +0.003 C 
BRANCH  16  17
ATOM     17  C   UNL     1      33.930 -21.099 -19.809  0.00  0.00    +0.000 C 
BRANCH  17  18
ATOM     18  C   UNL     1      34.887 -20.155 -20.539  0.00  0.00    +0.000 C 
BRANCH  18  19
ATOM     19  C   UNL     1      34.196 -19.275 -21.586  0.00  0.00    +0.000 C 
BRANCH  19  20
ATOM     20  C   UNL     1      34.754 -19.368 -23.010  0.00  0.00    +0.000 C 
BRANCH  20  21
ATOM     21  C   UNL     1      35.427 -18.082 -23.485  0.00  0.00    +0.000 C 
ATOM     22  C   UNL     1      34.693 -17.479 -24.675  0.00  0.00    +0.000 C 
ENDBRANCH  20  21
ENDBRANCH  19  20
ENDBRANCH  18  19
ENDBRANCH  17  18
ENDBRANCH  16  17
ENDBRANCH  15  16
ENDBRANCH  14  15
ENDBRANCH  13  14
ENDBRANCH   6  13
BRANCH   5  23
ATOM     23  C   UNL     1      37.624 -23.712 -12.468  0.00  0.00    +0.169 C 
BRANCH  23  24
ATOM     24  O   UNL     1      38.162 -22.548 -11.867  0.00  0.00    -0.379 OA
ATOM     25  H   UNL     1      37.682 -22.356 -11.046  0.00  0.00    +0.211 HD
ENDBRANCH  23  24
ENDBRANCH   5  23
TORSDOF 14
ENDMDL
MODEL 7
REMARK VINA RESULT:      -7.5      2.695      4.687
REMARK  Name = 155448
REMARK  14 active torsions:
REMARK  status: ('A' for Active; 'I' for Inactive)
REMARK    1  A    between atoms: C_2  and  O_7
REMARK    2  A    between atoms: C_3  and  O_9
REMARK    3  A    between atoms: C_4  and  O_11
REMARK    4  A    between atoms: C_5  and  C_23
REMARK    5  A    between atoms: C_6  and  O_13
REMARK    6  A    between atoms: O_13  and  C_14
REMARK    7  A    between atoms: C_14  and  C_15
REMARK    8  A    between atoms: C_15  and  C_16
REMARK    9  A    between atoms: C_16  and  C_17
REMARK   10  A    between atoms: C_17  and  C_18
REMARK   11  A    between atoms: C_18  and  C_19
REMARK   12  A    between atoms: C_19  and  C_20
REMARK   13  A    between atoms: C_20  and  C_21
REMARK   14  A    between atoms: C_23  and  O_24
REMARK                            x       y       z     vdW  Elec       q    Type
REMARK                         _______ _______ _______ _____ _____    ______ ____
ROOT
ATOM      1  O   UNL     1      32.398 -22.893 -16.537  0.00  0.00    -0.326 OA
ATOM      2  C   UNL     1      33.518 -24.086 -14.176  0.00  0.00    +0.172 C 
ATOM      3  C   UNL     1      32.128 -23.450 -14.193  0.00  0.00    +0.169 C 
ATOM      4  C   UNL     1      34.389 -23.541 -15.308  0.00  0.00    +0.196 C 
ATOM      5  C   UNL     1      31.518 -23.513 -15.596  0.00  0.00    +0.176 C 
ATOM      6  C   UNL     1      33.648 -23.570 -16.644  0.00  0.00    +0.266 C 
ENDROOT
BRANCH   2   7
ATOM      7  O   UNL     1      34.126 -23.784 -12.920  0.00  0.00    -0.379 OA
ATOM      8  H   UNL     1      34.924 -24.326 -12.809  0.00  0.00    +0.211 HD
ENDBRANCH   2   7
BRANCH   3   9
ATOM      9  O   UNL     1      31.281 -24.145 -13.281  0.00  0.00    -0.379 OA
ATOM     10  H   UNL     1      31.509 -23.894 -12.372  0.00  0.00    +0.211 HD
ENDBRANCH   3   9
BRANCH   4  11
ATOM     11  O   UNL     1      35.564 -24.343 -15.429  0.00  0.00    -0.378 OA
ATOM     12  H   UNL     1      35.431 -25.008 -16.123  0.00  0.00    +0.211 HD
ENDBRANCH   4  11
BRANCH   6  13
ATOM     13  O   UNL     1      34.467 -22.918 -17.614  0.00  0.00    -0.329 OA
BRANCH  13  14
ATOM     14  C   UNL     1      33.798 -22.793 -18.862  0.00  0.00    +0.145 C 
BRANCH  14  15
ATOM     15  C   UNL     1      34.225 -21.504 -19.553  0.00  0.00    +0.032 C 
BRANCH  15  16
ATOM     16  C   UNL     1      33.028 -20.627 -19.933  0.00  0.00    +0.003 C 
BRANCH  16  17
ATOM     17  C   UNL     1      33.347 -19.748 -21.145  0.00  0.00    +0.000 C 
BRANCH  17  18
ATOM     18  C   UNL     1      34.857 -19.612 -21.347  0.00  0.00    +0.000 C 
BRANCH  18  19
ATOM     19  C   UNL     1      35.235 -18.752 -22.557  0.00  0.00    +0.000 C 
BRANCH  19  20
ATOM     20  C   UNL     1      34.789 -19.285 -23.922  0.00  0.00    +0.000 C 
BRANCH  20  21
ATOM     21  C   UNL     1      34.515 -18.185 -24.946  0.00  0.00    +0.000 C 
ATOM     22  C   UNL     1      34.772 -16.804 -24.359  0.00  0.00    +0.000 C 
ENDBRANCH  20  21
ENDBRANCH  19  20
ENDBRANCH  18  19
ENDBRANCH  17  18
ENDBRANCH  16  17
ENDBRANCH  15  16
ENDBRANCH  14  15
ENDBRANCH  13  14
ENDBRANCH   6  13
BRANCH   5  23
ATOM     23  C   UNL     1      30.182 -22.782 -15.665  0.00  0.00    +0.169 C 
BRANCH  23  24
ATOM     24  O   UNL     1      29.734 -22.787 -17.008  0.00  0.00    -0.379 OA
ATOM     25  H   UNL     1      30.498 -22.779 -17.605  0.00  0.00    +0.211 HD
ENDBRANCH  23  24
ENDBRANCH   5  23
TORSDOF 14
ENDMDL
MODEL 8
REMARK VINA RESULT:      -7.5      1.883      3.118
REMARK  Name = 155448
REMARK  14 active torsions:
REMARK  status: ('A' for Active; 'I' for Inactive)
REMARK    1  A    between atoms: C_2  and  O_7
REMARK    2  A    between atoms: C_3  and  O_9
REMARK    3  A    between atoms: C_4  and  O_11
REMARK    4  A    between atoms: C_5  and  C_23
REMARK    5  A    between atoms: C_6  and  O_13
REMARK    6  A    between atoms: O_13  and  C_14
REMARK    7  A    between atoms: C_14  and  C_15
REMARK    8  A    between atoms: C_15  and  C_16
REMARK    9  A    between atoms: C_16  and  C_17
REMARK   10  A    between atoms: C_17  and  C_18
REMARK   11  A    between atoms: C_18  and  C_19
REMARK   12  A    between atoms: C_19  and  C_20
REMARK   13  A    between atoms: C_20  and  C_21
REMARK   14  A    between atoms: C_23  and  O_24
REMARK                            x       y       z     vdW  Elec       q    Type
REMARK                         _______ _______ _______ _____ _____    ______ ____
ROOT
ATOM      1  O   UNL     1      33.528 -23.506 -15.368  0.00  0.00    -0.326 OA
ATOM      2  C   UNL     1      35.913 -24.173 -13.914  0.00  0.00    +0.172 C 
ATOM      3  C   UNL     1      34.551 -24.035 -13.235  0.00  0.00    +0.169 C 
ATOM      4  C   UNL     1      35.950 -23.412 -15.239  0.00  0.00    +0.196 C 
ATOM      5  C   UNL     1      33.419 -24.348 -14.217  0.00  0.00    +0.176 C 
ATOM      6  C   UNL     1      34.729 -23.734 -16.100  0.00  0.00    +0.266 C 
ENDROOT
BRANCH   2   7
ATOM      7  O   UNL     1      36.902 -23.641 -13.032  0.00  0.00    -0.379 OA
ATOM      8  H   UNL     1      36.711 -23.925 -12.124  0.00  0.00    +0.211 HD
ENDBRANCH   2   7
BRANCH   3   9
ATOM      9  O   UNL     1      34.480 -24.937 -12.133  0.00  0.00    -0.379 OA
ATOM     10  H   UNL     1      35.322 -25.411 -12.049  0.00  0.00    +0.211 HD
ENDBRANCH   3   9
BRANCH   4  11
ATOM     11  O   UNL     1      37.121 -23.784 -15.966  0.00  0.00    -0.378 OA
ATOM     12  H   UNL     1      36.870 -24.082 -16.854  0.00  0.00    +0.211 HD
ENDBRANCH   4  11
BRANCH   6  13
ATOM     13  O   UNL     1      34.763 -22.884 -17.246  0.00  0.00    -0.329 OA
BRANCH  13  14
ATOM     14  C   UNL     1      33.746 -23.224 -18.178  0.00  0.00    +0.145 C 
BRANCH  14  15
ATOM     15  C   UNL     1      33.084 -21.958 -18.709  0.00  0.00    +0.032 C 
BRANCH  15  16
ATOM     16  C   UNL     1      33.850 -21.357 -19.892  0.00  0.00    +0.003 C 
BRANCH  16  17
ATOM     17  C   UNL     1      33.030 -20.266 -20.586  0.00  0.00    +0.000 C 
BRANCH  17  18
ATOM     18  C   UNL     1      33.908 -19.071 -20.964  0.00  0.00    +0.000 C 
BRANCH  18  19
ATOM     19  C   UNL     1      35.004 -19.415 -21.977  0.00  0.00    +0.000 C 
BRANCH  19  20
ATOM     20  C   UNL     1      34.694 -19.077 -23.439  0.00  0.00    +0.000 C 
BRANCH  20  21
ATOM     21  C   UNL     1      35.011 -17.629 -23.809  0.00  0.00    +0.000 C 
ATOM     22  C   UNL     1      34.611 -17.324 -25.246  0.00  0.00    +0.000 C 
ENDBRANCH  20  21
ENDBRANCH  19  20
ENDBRANCH  18  19
ENDBRANCH  17  18
ENDBRANCH  16  17
ENDBRANCH  15  16
ENDBRANCH  14  15
ENDBRANCH  13  14
ENDBRANCH   6  13
BRANCH   5  23
ATOM     23  C   UNL     1      32.048 -24.103 -13.597  0.00  0.00    +0.169 C 
BRANCH  23  24
ATOM     24  O   UNL     1      32.155 -23.037 -12.671  0.00  0.00    -0.379 OA
ATOM     25  H   UNL     1      31.652 -22.274 -12.996  0.00  0.00    +0.211 HD
ENDBRANCH  23  24
ENDBRANCH   5  23
TORSDOF 14
ENDMDL
MODEL 9
REMARK VINA RESULT:      -7.4      1.912      3.204
REMARK  Name = 155448
REMARK  14 active torsions:
REMARK  status: ('A' for Active; 'I' for Inactive)
REMARK    1  A    between atoms: C_2  and  O_7
REMARK    2  A    between atoms: C_3  and  O_9
REMARK    3  A    between atoms: C_4  and  O_11
REMARK    4  A    between atoms: C_5  and  C_23
REMARK    5  A    between atoms: C_6  and  O_13
REMARK    6  A    between atoms: O_13  and  C_14
REMARK    7  A    between atoms: C_14  and  C_15
REMARK    8  A    between atoms: C_15  and  C_16
REMARK    9  A    between atoms: C_16  and  C_17
REMARK   10  A    between atoms: C_17  and  C_18
REMARK   11  A    between atoms: C_18  and  C_19
REMARK   12  A    between atoms: C_19  and  C_20
REMARK   13  A    between atoms: C_20  and  C_21
REMARK   14  A    between atoms: C_23  and  O_24
REMARK                            x       y       z     vdW  Elec       q    Type
REMARK                         _______ _______ _______ _____ _____    ______ ____
ROOT
ATOM      1  O   UNL     1      36.589 -24.028 -15.834  0.00  0.00    -0.326 OA
ATOM      2  C   UNL     1      34.827 -24.061 -13.567  0.00  0.00    +0.172 C 
ATOM      3  C   UNL     1      36.089 -24.920 -13.637  0.00  0.00    +0.169 C 
ATOM      4  C   UNL     1      34.353 -23.659 -14.964  0.00  0.00    +0.196 C 
ATOM      5  C   UNL     1      37.141 -24.269 -14.538  0.00  0.00    +0.176 C 
ATOM      6  C   UNL     1      35.503 -23.105 -15.804  0.00  0.00    +0.266 C 
ENDROOT
BRANCH   2   7
ATOM      7  O   UNL     1      33.807 -24.825 -12.921  0.00  0.00    -0.379 OA
ATOM      8  H   UNL     1      34.037 -25.767 -12.960  0.00  0.00    +0.211 HD
ENDBRANCH   2   7
BRANCH   3   9
ATOM      9  O   UNL     1      36.625 -25.077 -12.325  0.00  0.00    -0.379 OA
ATOM     10  H   UNL     1      37.440 -25.600 -12.370  0.00  0.00    +0.211 HD
ENDBRANCH   3   9
BRANCH   4  11
ATOM     11  O   UNL     1      33.352 -22.648 -14.853  0.00  0.00    -0.378 OA
ATOM     12  H   UNL     1      33.760 -21.775 -14.965  0.00  0.00    +0.211 HD
ENDBRANCH   4  11
BRANCH   6  13
ATOM     13  O   UNL     1      35.017 -22.890 -17.128  0.00  0.00    -0.329 OA
BRANCH  13  14
ATOM     14  C   UNL     1      35.835 -21.973 -17.842  0.00  0.00    +0.145 C 
BRANCH  14  15
ATOM     15  C   UNL     1      35.445 -21.968 -19.315  0.00  0.00    +0.032 C 
BRANCH  15  16
ATOM     16  C   UNL     1      34.023 -21.442 -19.536  0.00  0.00    +0.003 C 
BRANCH  16  17
ATOM     17  C   UNL     1      34.026 -20.190 -20.417  0.00  0.00    +0.000 C 
BRANCH  17  18
ATOM     18  C   UNL     1      35.433 -19.881 -20.935  0.00  0.00    +0.000 C 
BRANCH  18  19
ATOM     19  C   UNL     1      35.628 -18.415 -21.331  0.00  0.00    +0.000 C 
BRANCH  19  20
ATOM     20  C   UNL     1      34.373 -17.537 -21.286  0.00  0.00    +0.000 C 
BRANCH  20  21
ATOM     21  C   UNL     1      34.652 -16.098 -20.853  0.00  0.00    +0.000 C 
ATOM     22  C   UNL     1      33.360 -15.313 -20.673  0.00  0.00    +0.000 C 
ENDBRANCH  20  21
ENDBRANCH  19  20
ENDBRANCH  18  19
ENDBRANCH  17  18
ENDBRANCH  16  17
ENDBRANCH  15  16
ENDBRANCH  14  15
ENDBRANCH  13  14
ENDBRANCH   6  13
BRANCH   5  23
ATOM     23  C   UNL     1      38.363 -25.163 -14.717  0.00  0.00    +0.169 C 
BRANCH  23  24
ATOM     24  O   UNL     1      37.985 -26.298 -15.473  0.00  0.00    -0.379 OA
ATOM     25  H   UNL     1      37.030 -26.442 -15.386  0.00  0.00    +0.211 HD
ENDBRANCH  23  24
ENDBRANCH   5  23
TORSDOF 14
ENDMDL
