MODEL 1
REMARK VINA RESULT:      -6.2      0.000      0.000
REMARK  Name = 444914
REMARK  5 active torsions:
REMARK  status: ('A' for Active; 'I' for Inactive)
REMARK    1  A    between atoms: C_2  and  O_7
REMARK    2  A    between atoms: C_4  and  C_13
REMARK    3  A    between atoms: C_5  and  O_9
REMARK    4  A    between atoms: C_6  and  O_11
REMARK    5  A    between atoms: C_13  and  O_14
REMARK                            x       y       z     vdW  Elec       q    Type
REMARK                         _______ _______ _______ _____ _____    ______ ____
ROOT
ATOM      1  O   UNL     1      38.797 -24.274 -13.459  0.00  0.00    -0.329 OA
ATOM      2  C   UNL     1      36.918 -26.413 -13.959  0.00  0.00    +0.145 C 
ATOM      3  C   UNL     1      38.233 -26.277 -14.722  0.00  0.00    +0.064 C 
ATOM      4  C   UNL     1      39.285 -25.552 -13.882  0.00  0.00    +0.149 C 
ATOM      5  C   UNL     1      36.484 -25.050 -13.417  0.00  0.00    +0.194 C 
ATOM      6  C   UNL     1      37.619 -24.360 -12.653  0.00  0.00    +0.262 C 
ENDROOT
BRANCH   2   7
ATOM      7  O   UNL     1      35.934 -26.917 -14.859  0.00  0.00    -0.382 OA
ATOM      8  H   UNL     1      36.162 -26.659 -15.765  0.00  0.00    +0.210 HD
ENDBRANCH   2   7
BRANCH   5   9
ATOM      9  O   UNL     1      35.360 -25.187 -12.555  0.00  0.00    -0.378 OA
ATOM     10  H   UNL     1      34.545 -25.064 -13.066  0.00  0.00    +0.211 HD
ENDBRANCH   5   9
BRANCH   6  11
ATOM     11  O   UNL     1      37.878 -24.970 -11.389  0.00  0.00    -0.358 OA
ATOM     12  H   UNL     1      37.061 -25.366 -11.048  0.00  0.00    +0.213 HD
ENDBRANCH   6  11
BRANCH   4  13
ATOM     13  C   UNL     1      40.557 -25.316 -14.686  0.00  0.00    +0.167 C 
BRANCH  13  14
ATOM     14  O   UNL     1      40.407 -25.914 -15.961  0.00  0.00    -0.379 OA
ATOM     15  H   UNL     1      39.588 -26.434 -15.980  0.00  0.00    +0.211 HD
ENDBRANCH  13  14
ENDBRANCH   4  13
TORSDOF 5
ENDMDL
MODEL 2
REMARK VINA RESULT:      -6.1      2.024      3.914
REMARK  Name = 444914
REMARK  5 active torsions:
REMARK  status: ('A' for Active; 'I' for Inactive)
REMARK    1  A    between atoms: C_2  and  O_7
REMARK    2  A    between atoms: C_4  and  C_13
REMARK    3  A    between atoms: C_5  and  O_9
REMARK    4  A    between atoms: C_6  and  O_11
REMARK    5  A    between atoms: C_13  and  O_14
REMARK                            x       y       z     vdW  Elec       q    Type
REMARK                         _______ _______ _______ _____ _____    ______ ____
ROOT
ATOM      1  O   UNL     1      36.719 -25.958 -12.223  0.00  0.00    -0.329 OA
ATOM      2  C   UNL     1      36.426 -24.634 -14.776  0.00  0.00    +0.145 C 
ATOM      3  C   UNL     1      35.811 -24.089 -13.490  0.00  0.00    +0.064 C 
ATOM      4  C   UNL     1      36.612 -24.531 -12.265  0.00  0.00    +0.149 C 
ATOM      5  C   UNL     1      36.639 -26.144 -14.656  0.00  0.00    +0.194 C 
ATOM      6  C   UNL     1      37.383 -26.506 -13.366  0.00  0.00    +0.262 C 
ENDROOT
BRANCH   2   7
ATOM      7  O   UNL     1      35.531 -24.352 -15.849  0.00  0.00    -0.382 OA
ATOM      8  H   UNL     1      34.617 -24.401 -15.530  0.00  0.00    +0.210 HD
ENDBRANCH   2   7
BRANCH   5   9
ATOM      9  O   UNL     1      37.373 -26.638 -15.770  0.00  0.00    -0.378 OA
ATOM     10  H   UNL     1      37.120 -27.558 -15.941  0.00  0.00    +0.211 HD
ENDBRANCH   5   9
BRANCH   6  11
ATOM     11  O   UNL     1      38.763 -26.143 -13.409  0.00  0.00    -0.358 OA
ATOM     12  H   UNL     1      38.874 -25.252 -13.045  0.00  0.00    +0.213 HD
ENDBRANCH   6  11
BRANCH   4  13
ATOM     13  C   UNL     1      35.933 -24.082 -10.978  0.00  0.00    +0.167 C 
BRANCH  13  14
ATOM     14  O   UNL     1      35.277 -25.196 -10.399  0.00  0.00    -0.379 OA
ATOM     15  H   UNL     1      34.533 -24.888  -9.858  0.00  0.00    +0.211 HD
ENDBRANCH  13  14
ENDBRANCH   4  13
TORSDOF 5
ENDMDL
MODEL 3
REMARK VINA RESULT:      -6.0      1.248      2.451
REMARK  Name = 444914
REMARK  5 active torsions:
REMARK  status: ('A' for Active; 'I' for Inactive)
REMARK    1  A    between atoms: C_2  and  O_7
REMARK    2  A    between atoms: C_4  and  C_13
REMARK    3  A    between atoms: C_5  and  O_9
REMARK    4  A    between atoms: C_6  and  O_11
REMARK    5  A    between atoms: C_13  and  O_14
REMARK                            x       y       z     vdW  Elec       q    Type
REMARK                         _______ _______ _______ _____ _____    ______ ____
ROOT
ATOM      1  O   UNL     1      38.132 -26.196 -14.970  0.00  0.00    -0.329 OA
ATOM      2  C   UNL     1      37.446 -24.554 -12.692  0.00  0.00    +0.145 C 
ATOM      3  C   UNL     1      38.872 -25.027 -12.968  0.00  0.00    +0.064 C 
ATOM      4  C   UNL     1      39.094 -25.265 -14.461  0.00  0.00    +0.149 C 
ATOM      5  C   UNL     1      36.443 -25.503 -13.350  0.00  0.00    +0.194 C 
ATOM      6  C   UNL     1      36.782 -25.746 -14.824  0.00  0.00    +0.262 C 
ENDROOT
BRANCH   2   7
ATOM      7  O   UNL     1      37.251 -24.539 -11.280  0.00  0.00    -0.382 OA
ATOM      8  H   UNL     1      37.108 -25.444 -10.963  0.00  0.00    +0.210 HD
ENDBRANCH   2   7
BRANCH   5   9
ATOM      9  O   UNL     1      35.123 -24.982 -13.256  0.00  0.00    -0.378 OA
ATOM     10  H   UNL     1      34.762 -24.854 -14.147  0.00  0.00    +0.211 HD
ENDBRANCH   5   9
BRANCH   6  11
ATOM     11  O   UNL     1      36.504 -24.611 -15.644  0.00  0.00    -0.358 OA
ATOM     12  H   UNL     1      37.250 -23.993 -15.604  0.00  0.00    +0.213 HD
ENDBRANCH   6  11
BRANCH   4  13
ATOM     13  C   UNL     1      40.478 -25.846 -14.722  0.00  0.00    +0.167 C 
BRANCH  13  14
ATOM     14  O   UNL     1      40.637 -26.031 -16.117  0.00  0.00    -0.379 OA
ATOM     15  H   UNL     1      39.943 -25.545 -16.589  0.00  0.00    +0.211 HD
ENDBRANCH  13  14
ENDBRANCH   4  13
TORSDOF 5
ENDMDL
MODEL 4
REMARK VINA RESULT:      -5.9      2.235      2.846
REMARK  Name = 444914
REMARK  5 active torsions:
REMARK  status: ('A' for Active; 'I' for Inactive)
REMARK    1  A    between atoms: C_2  and  O_7
REMARK    2  A    between atoms: C_4  and  C_13
REMARK    3  A    between atoms: C_5  and  O_9
REMARK    4  A    between atoms: C_6  and  O_11
REMARK    5  A    between atoms: C_13  and  O_14
REMARK                            x       y       z     vdW  Elec       q    Type
REMARK                         _______ _______ _______ _____ _____    ______ ____
ROOT
ATOM      1  O   UNL     1      37.703 -24.396 -13.132  0.00  0.00    -0.329 OA
ATOM      2  C   UNL     1      34.843 -24.240 -12.743  0.00  0.00    +0.145 C 
ATOM      3  C   UNL     1      35.548 -23.599 -13.936  0.00  0.00    +0.064 C 
ATOM      4  C   UNL     1      36.841 -24.340 -14.274  0.00  0.00    +0.149 C 
ATOM      5  C   UNL     1      35.821 -24.395 -11.578  0.00  0.00    +0.194 C 
ATOM      6  C   UNL     1      37.119 -25.080 -12.020  0.00  0.00    +0.262 C 
ENDROOT
BRANCH   2   7
ATOM      7  O   UNL     1      33.760 -23.394 -12.362  0.00  0.00    -0.382 OA
ATOM      8  H   UNL     1      34.087 -22.491 -12.227  0.00  0.00    +0.210 HD
ENDBRANCH   2   7
BRANCH   5   9
ATOM      9  O   UNL     1      35.232 -25.151 -10.525  0.00  0.00    -0.378 OA
ATOM     10  H   UNL     1      35.654 -24.915  -9.684  0.00  0.00    +0.211 HD
ENDBRANCH   5   9
BRANCH   6  11
ATOM     11  O   UNL     1      36.942 -26.473 -12.279  0.00  0.00    -0.358 OA
ATOM     12  H   UNL     1      36.188 -26.803 -11.767  0.00  0.00    +0.213 HD
ENDBRANCH   6  11
BRANCH   4  13
ATOM     13  C   UNL     1      37.601 -23.633 -15.389  0.00  0.00    +0.167 C 
BRANCH  13  14
ATOM     14  O   UNL     1      38.935 -24.108 -15.403  0.00  0.00    -0.379 OA
ATOM     15  H   UNL     1      38.935 -25.066 -15.551  0.00  0.00    +0.211 HD
ENDBRANCH  13  14
ENDBRANCH   4  13
TORSDOF 5
ENDMDL
MODEL 5
REMARK VINA RESULT:      -5.9      1.473      4.271
REMARK  Name = 444914
REMARK  5 active torsions:
REMARK  status: ('A' for Active; 'I' for Inactive)
REMARK    1  A    between atoms: C_2  and  O_7
REMARK    2  A    between atoms: C_4  and  C_13
REMARK    3  A    between atoms: C_5  and  O_9
REMARK    4  A    between atoms: C_6  and  O_11
REMARK    5  A    between atoms: C_13  and  O_14
REMARK                            x       y       z     vdW  Elec       q    Type
REMARK                         _______ _______ _______ _____ _____    ______ ____
ROOT
ATOM      1  O   UNL     1      35.959 -24.960 -13.524  0.00  0.00    -0.329 OA
ATOM      2  C   UNL     1      38.825 -25.292 -13.340  0.00  0.00    +0.145 C 
ATOM      3  C   UNL     1      38.012 -24.549 -12.282  0.00  0.00    +0.064 C 
ATOM      4  C   UNL     1      36.573 -25.061 -12.234  0.00  0.00    +0.149 C 
ATOM      5  C   UNL     1      38.087 -25.270 -14.679  0.00  0.00    +0.194 C 
ATOM      6  C   UNL     1      36.632 -25.726 -14.527  0.00  0.00    +0.262 C 
ENDROOT
BRANCH   2   7
ATOM      7  O   UNL     1      40.087 -24.641 -13.466  0.00  0.00    -0.382 OA
ATOM      8  H   UNL     1      40.763 -25.153 -12.997  0.00  0.00    +0.210 HD
ENDBRANCH   2   7
BRANCH   5   9
ATOM      9  O   UNL     1      38.740 -26.108 -15.626  0.00  0.00    -0.378 OA
ATOM     10  H   UNL     1      38.660 -27.033 -15.347  0.00  0.00    +0.211 HD
ENDBRANCH   5   9
BRANCH   6  11
ATOM     11  O   UNL     1      36.520 -27.130 -14.295  0.00  0.00    -0.358 OA
ATOM     12  H   UNL     1      36.906 -27.613 -15.042  0.00  0.00    +0.213 HD
ENDBRANCH   6  11
BRANCH   4  13
ATOM     13  C   UNL     1      35.734 -24.241 -11.261  0.00  0.00    +0.167 C 
BRANCH  13  14
ATOM     14  O   UNL     1      35.297 -25.089 -10.214  0.00  0.00    -0.379 OA
ATOM     15  H   UNL     1      34.977 -25.925 -10.586  0.00  0.00    +0.211 HD
ENDBRANCH  13  14
ENDBRANCH   4  13
TORSDOF 5
ENDMDL
MODEL 6
REMARK VINA RESULT:      -5.9      1.804      3.361
REMARK  Name = 444914
REMARK  5 active torsions:
REMARK  status: ('A' for Active; 'I' for Inactive)
REMARK    1  A    between atoms: C_2  and  O_7
REMARK    2  A    between atoms: C_4  and  C_13
REMARK    3  A    between atoms: C_5  and  O_9
REMARK    4  A    between atoms: C_6  and  O_11
REMARK    5  A    between atoms: C_13  and  O_14
REMARK                            x       y       z     vdW  Elec       q    Type
REMARK                         _______ _______ _______ _____ _____    ______ ____
ROOT
ATOM      1  O   UNL     1      36.267 -23.593 -13.791  0.00  0.00    -0.329 OA
ATOM      2  C   UNL     1      37.486 -26.211 -13.917  0.00  0.00    +0.145 C 
ATOM      3  C   UNL     1      37.990 -25.111 -12.986  0.00  0.00    +0.064 C 
ATOM      4  C   UNL     1      36.865 -24.146 -12.613  0.00  0.00    +0.149 C 
ATOM      5  C   UNL     1      36.746 -25.593 -15.105  0.00  0.00    +0.194 C 
ATOM      6  C   UNL     1      35.689 -24.583 -14.646  0.00  0.00    +0.262 C 
ENDROOT
BRANCH   2   7
ATOM      7  O   UNL     1      38.613 -26.954 -14.376  0.00  0.00    -0.382 OA
ATOM      8  H   UNL     1      38.352 -27.504 -15.131  0.00  0.00    +0.210 HD
ENDBRANCH   2   7
BRANCH   5   9
ATOM      9  O   UNL     1      36.117 -26.602 -15.886  0.00  0.00    -0.378 OA
ATOM     10  H   UNL     1      36.722 -27.353 -15.990  0.00  0.00    +0.211 HD
ENDBRANCH   5   9
BRANCH   6  11
ATOM     11  O   UNL     1      34.555 -25.211 -14.050  0.00  0.00    -0.358 OA
ATOM     12  H   UNL     1      33.902 -24.537 -13.807  0.00  0.00    +0.213 HD
ENDBRANCH   6  11
BRANCH   4  13
ATOM     13  C   UNL     1      37.395 -22.987 -11.778  0.00  0.00    +0.167 C 
BRANCH  13  14
ATOM     14  O   UNL     1      38.798 -23.126 -11.646  0.00  0.00    -0.379 OA
ATOM     15  H   UNL     1      39.166 -23.484 -12.469  0.00  0.00    +0.211 HD
ENDBRANCH  13  14
ENDBRANCH   4  13
TORSDOF 5
ENDMDL
MODEL 7
REMARK VINA RESULT:      -5.8      2.096      3.165
REMARK  Name = 444914
REMARK  5 active torsions:
REMARK  status: ('A' for Active; 'I' for Inactive)
REMARK    1  A    between atoms: C_2  and  O_7
REMARK    2  A    between atoms: C_4  and  C_13
REMARK    3  A    between atoms: C_5  and  O_9
REMARK    4  A    between atoms: C_6  and  O_11
REMARK    5  A    between atoms: C_13  and  O_14
REMARK                            x       y       z     vdW  Elec       q    Type
REMARK                         _______ _______ _______ _____ _____    ______ ____
ROOT
ATOM      1  O   UNL     1      35.910 -25.068 -14.780  0.00  0.00    -0.329 OA
ATOM      2  C   UNL     1      35.767 -24.566 -11.937  0.00  0.00    +0.145 C 
ATOM      3  C   UNL     1      36.770 -25.539 -12.553  0.00  0.00    +0.064 C 
ATOM      4  C   UNL     1      37.103 -25.150 -13.992  0.00  0.00    +0.149 C 
ATOM      5  C   UNL     1      34.557 -24.408 -12.859  0.00  0.00    +0.194 C 
ATOM      6  C   UNL     1      34.983 -24.092 -14.297  0.00  0.00    +0.262 C 
ENDROOT
BRANCH   2   7
ATOM      7  O   UNL     1      35.356 -25.092 -10.677  0.00  0.00    -0.382 OA
ATOM      8  H   UNL     1      35.362 -24.385 -10.014  0.00  0.00    +0.210 HD
ENDBRANCH   2   7
BRANCH   5   9
ATOM      9  O   UNL     1      33.701 -23.373 -12.390  0.00  0.00    -0.378 OA
ATOM     10  H   UNL     1      32.787 -23.569 -12.647  0.00  0.00    +0.211 HD
ENDBRANCH   5   9
BRANCH   6  11
ATOM     11  O   UNL     1      35.480 -22.762 -14.441  0.00  0.00    -0.358 OA
ATOM     12  H   UNL     1      36.017 -22.532 -13.667  0.00  0.00    +0.213 HD
ENDBRANCH   6  11
BRANCH   4  13
ATOM     13  C   UNL     1      38.013 -26.185 -14.642  0.00  0.00    +0.167 C 
BRANCH  13  14
ATOM     14  O   UNL     1      37.374 -26.687 -15.802  0.00  0.00    -0.379 OA
ATOM     15  H   UNL     1      36.499 -26.278 -15.892  0.00  0.00    +0.211 HD
ENDBRANCH  13  14
ENDBRANCH   4  13
TORSDOF 5
ENDMDL
MODEL 8
REMARK VINA RESULT:      -5.6      2.819      4.759
REMARK  Name = 444914
REMARK  5 active torsions:
REMARK  status: ('A' for Active; 'I' for Inactive)
REMARK    1  A    between atoms: C_2  and  O_7
REMARK    2  A    between atoms: C_4  and  C_13
REMARK    3  A    between atoms: C_5  and  O_9
REMARK    4  A    between atoms: C_6  and  O_11
REMARK    5  A    between atoms: C_13  and  O_14
REMARK                            x       y       z     vdW  Elec       q    Type
REMARK                         _______ _______ _______ _____ _____    ______ ____
ROOT
ATOM      1  O   UNL     1      35.766 -23.193 -13.930  0.00  0.00    -0.329 OA
ATOM      2  C   UNL     1      36.471 -24.176 -11.305  0.00  0.00    +0.145 C 
ATOM      3  C   UNL     1      35.035 -24.169 -11.824  0.00  0.00    +0.064 C 
ATOM      4  C   UNL     1      35.000 -24.255 -13.349  0.00  0.00    +0.149 C 
ATOM      5  C   UNL     1      37.295 -23.111 -12.030  0.00  0.00    +0.194 C 
ATOM      6  C   UNL     1      37.145 -23.222 -13.551  0.00  0.00    +0.262 C 
ENDROOT
BRANCH   2   7
ATOM      7  O   UNL     1      36.437 -23.900  -9.906  0.00  0.00    -0.382 OA
ATOM      8  H   UNL     1      37.268 -24.191  -9.500  0.00  0.00    +0.210 HD
ENDBRANCH   2   7
BRANCH   5   9
ATOM      9  O   UNL     1      38.672 -23.224 -11.689  0.00  0.00    -0.378 OA
ATOM     10  H   UNL     1      39.063 -22.338 -11.628  0.00  0.00    +0.211 HD
ENDBRANCH   5   9
BRANCH   6  11
ATOM     11  O   UNL     1      37.826 -24.356 -14.086  0.00  0.00    -0.358 OA
ATOM     12  H   UNL     1      37.396 -25.168 -13.774  0.00  0.00    +0.213 HD
ENDBRANCH   6  11
BRANCH   4  13
ATOM     13  C   UNL     1      33.574 -24.132 -13.871  0.00  0.00    +0.167 C 
BRANCH  13  14
ATOM     14  O   UNL     1      32.775 -25.118 -13.242  0.00  0.00    -0.379 OA
ATOM     15  H   UNL     1      32.814 -25.001 -12.280  0.00  0.00    +0.211 HD
ENDBRANCH  13  14
ENDBRANCH   4  13
TORSDOF 5
ENDMDL
MODEL 9
REMARK VINA RESULT:      -5.5      5.880      8.039
REMARK  Name = 444914
REMARK  5 active torsions:
REMARK  status: ('A' for Active; 'I' for Inactive)
REMARK    1  A    between atoms: C_2  and  O_7
REMARK    2  A    between atoms: C_4  and  C_13
REMARK    3  A    between atoms: C_5  and  O_9
REMARK    4  A    between atoms: C_6  and  O_11
REMARK    5  A    between atoms: C_13  and  O_14
REMARK                            x       y       z     vdW  Elec       q    Type
REMARK                         _______ _______ _______ _____ _____    ______ ____
ROOT
ATOM      1  O   UNL     1      29.836 -24.715 -14.783  0.00  0.00    -0.329 OA
ATOM      2  C   UNL     1      32.255 -23.161 -14.476  0.00  0.00    +0.145 C 
ATOM      3  C   UNL     1      31.153 -22.785 -15.464  0.00  0.00    +0.064 C 
ATOM      4  C   UNL     1      29.793 -23.299 -14.995  0.00  0.00    +0.149 C 
ATOM      5  C   UNL     1      32.199 -24.660 -14.177  0.00  0.00    +0.194 C 
ATOM      6  C   UNL     1      30.786 -25.105 -13.788  0.00  0.00    +0.262 C 
ENDROOT
BRANCH   2   7
ATOM      7  O   UNL     1      33.510 -22.826 -15.063  0.00  0.00    -0.382 OA
ATOM      8  H   UNL     1      34.145 -23.539 -14.896  0.00  0.00    +0.210 HD
ENDBRANCH   2   7
BRANCH   5   9
ATOM      9  O   UNL     1      33.099 -24.996 -13.126  0.00  0.00    -0.378 OA
ATOM     10  H   UNL     1      32.680 -25.644 -12.538  0.00  0.00    +0.211 HD
ENDBRANCH   5   9
BRANCH   6  11
ATOM     11  O   UNL     1      30.411 -24.659 -12.484  0.00  0.00    -0.358 OA
ATOM     12  H   UNL     1      30.753 -23.764 -12.339  0.00  0.00    +0.213 HD
ENDBRANCH   6  11
BRANCH   4  13
ATOM     13  C   UNL     1      28.716 -23.022 -16.036  0.00  0.00    +0.167 C 
BRANCH  13  14
ATOM     14  O   UNL     1      29.319 -22.411 -17.162  0.00  0.00    -0.379 OA
ATOM     15  H   UNL     1      28.752 -21.693 -17.484  0.00  0.00    +0.211 HD
ENDBRANCH  13  14
ENDBRANCH   4  13
TORSDOF 5
ENDMDL
