MODEL 1
REMARK VINA RESULT:      -7.5      0.000      0.000
REMARK  Name = 3114
REMARK  8 active torsions:
REMARK  status: ('A' for Active; 'I' for Inactive)
REMARK    1  A    between atoms: C_1  and  C_3
REMARK    2  A    between atoms: C_1  and  C_8
REMARK    3  A    between atoms: C_1  and  C_16
REMARK    4  A    between atoms: C_1  and  C_19
REMARK    5  A    between atoms: C_19  and  C_20
REMARK    6  A    between atoms: C_20  and  N_21
REMARK    7  A    between atoms: N_21  and  C_23
REMARK    8  A    between atoms: N_21  and  C_26
REMARK                            x       y       z     vdW  Elec       q    Type
REMARK                         _______ _______ _______ _____ _____    ______ ____
ROOT
ATOM      1  C   UNL     1      35.640 -24.735 -14.501  0.00  0.00    +0.120 C 
ENDROOT
BRANCH   1   3
ATOM      2  N   UNL     1      35.150 -24.906 -12.136  0.00  0.00    -0.247 NA
ATOM      3  C   UNL     1      35.896 -24.281 -13.033  0.00  0.00    +0.070 C 
ATOM      4  C   UNL     1      36.830 -23.319 -12.844  0.00  0.00    +0.016 C 
ATOM      5  C   UNL     1      37.035 -22.935 -11.523  0.00  0.00    +0.003 C 
ATOM      6  C   UNL     1      35.376 -24.507 -10.865  0.00  0.00    +0.098 C 
ATOM      7  C   UNL     1      36.298 -23.537 -10.508  0.00  0.00    +0.021 C 
ENDBRANCH   1   3
BRANCH   1   8
ATOM      8  C   UNL     1      36.253 -23.643 -15.424  0.00  0.00    -0.009 C 
ATOM      9  C   UNL     1      37.613 -23.560 -15.490  0.00  0.00    -0.003 C 
ATOM     10  C   UNL     1      35.394 -22.836 -16.109  0.00  0.00    -0.003 C 
ATOM     11  C   UNL     1      38.164 -22.581 -16.316  0.00  0.00    -0.000 C 
ATOM     12  C   UNL     1      35.944 -21.856 -16.935  0.00  0.00    -0.000 C 
ATOM     13  C   UNL     1      37.330 -21.728 -17.039  0.00  0.00    -0.000 C 
ENDBRANCH   1   8
BRANCH   1  16
ATOM     14  O   UNL     1      36.190 -26.726 -15.854  0.00  0.00    -0.275 OA
ATOM     15  N   UNL     1      36.891 -26.719 -13.683  0.00  0.00    -0.328 N 
ATOM     16  C   UNL     1      36.278 -26.137 -14.776  0.00  0.00    +0.227 C 
ATOM     17  H   UNL     1      37.318 -27.602 -13.771  0.00  0.00    +0.145 HD
ATOM     18  H   UNL     1      36.901 -26.251 -12.817  0.00  0.00    +0.145 HD
ENDBRANCH   1  16
BRANCH   1  19
ATOM     19  C   UNL     1      34.096 -24.970 -14.755  0.00  0.00    -0.004 C 
BRANCH  19  20
ATOM     20  C   UNL     1      33.204 -23.726 -14.590  0.00  0.00    -0.076 C 
BRANCH  20  21
ATOM     21  N   UNL     1      31.959 -23.901 -15.331  0.00  0.00    +0.390 N 
ATOM     22  H   UNL     1      32.019 -24.774 -15.858  0.00  0.00    -0.080 HD
BRANCH  21  23
ATOM     23  C   UNL     1      30.823 -23.991 -14.414  0.00  0.00    -0.058 C 
ATOM     24  C   UNL     1      30.334 -25.435 -14.350  0.00  0.00    -0.023 C 
ATOM     25  C   UNL     1      31.219 -23.485 -13.030  0.00  0.00    -0.023 C 
ENDBRANCH  21  23
BRANCH  21  26
ATOM     26  C   UNL     1      31.765 -22.803 -16.277  0.00  0.00    -0.058 C 
ATOM     27  C   UNL     1      32.544 -23.091 -17.557  0.00  0.00    -0.023 C 
ATOM     28  C   UNL     1      30.279 -22.614 -16.573  0.00  0.00    -0.023 C 
ENDBRANCH  21  26
ENDBRANCH  20  21
ENDBRANCH  19  20
ENDBRANCH   1  19
TORSDOF 8
ENDMDL
MODEL 2
REMARK VINA RESULT:      -7.1      0.501      2.054
REMARK  Name = 3114
REMARK  8 active torsions:
REMARK  status: ('A' for Active; 'I' for Inactive)
REMARK    1  A    between atoms: C_1  and  C_3
REMARK    2  A    between atoms: C_1  and  C_8
REMARK    3  A    between atoms: C_1  and  C_16
REMARK    4  A    between atoms: C_1  and  C_19
REMARK    5  A    between atoms: C_19  and  C_20
REMARK    6  A    between atoms: C_20  and  N_21
REMARK    7  A    between atoms: N_21  and  C_23
REMARK    8  A    between atoms: N_21  and  C_26
REMARK                            x       y       z     vdW  Elec       q    Type
REMARK                         _______ _______ _______ _____ _____    ______ ____
ROOT
ATOM      1  C   UNL     1      35.450 -24.574 -14.591  0.00  0.00    +0.120 C 
ENDROOT
BRANCH   1   3
ATOM      2  N   UNL     1      35.121 -24.767 -12.200  0.00  0.00    -0.247 NA
ATOM      3  C   UNL     1      35.834 -24.164 -13.138  0.00  0.00    +0.070 C 
ATOM      4  C   UNL     1      36.830 -23.256 -12.999  0.00  0.00    +0.016 C 
ATOM      5  C   UNL     1      37.148 -22.911 -11.690  0.00  0.00    +0.003 C 
ATOM      6  C   UNL     1      35.457 -24.407 -10.941  0.00  0.00    +0.098 C 
ATOM      7  C   UNL     1      36.453 -23.493 -10.636  0.00  0.00    +0.021 C 
ENDBRANCH   1   3
BRANCH   1   8
ATOM      8  C   UNL     1      36.103 -23.529 -15.540  0.00  0.00    -0.009 C 
ATOM      9  C   UNL     1      35.285 -22.860 -16.403  0.00  0.00    -0.003 C 
ATOM     10  C   UNL     1      37.451 -23.345 -15.451  0.00  0.00    -0.003 C 
ATOM     11  C   UNL     1      35.870 -21.923 -17.255  0.00  0.00    -0.000 C 
ATOM     12  C   UNL     1      38.036 -22.409 -16.303  0.00  0.00    -0.000 C 
ATOM     13  C   UNL     1      37.245 -21.696 -17.205  0.00  0.00    -0.000 C 
ENDBRANCH   1   8
BRANCH   1  16
ATOM     14  O   UNL     1      35.761 -26.579 -15.998  0.00  0.00    -0.275 OA
ATOM     15  N   UNL     1      36.537 -26.684 -13.857  0.00  0.00    -0.328 N 
ATOM     16  C   UNL     1      35.943 -26.023 -14.915  0.00  0.00    +0.227 C 
ATOM     17  H   UNL     1      36.875 -27.602 -13.976  0.00  0.00    +0.145 HD
ATOM     18  H   UNL     1      36.623 -26.238 -12.983  0.00  0.00    +0.145 HD
ENDBRANCH   1  16
BRANCH   1  19
ATOM     19  C   UNL     1      33.879 -24.667 -14.752  0.00  0.00    -0.004 C 
BRANCH  19  20
ATOM     20  C   UNL     1      33.151 -23.318 -14.896  0.00  0.00    -0.076 C 
BRANCH  20  21
ATOM     21  N   UNL     1      31.706 -23.527 -14.882  0.00  0.00    +0.390 N 
ATOM     22  H   UNL     1      31.277 -22.773 -14.343  0.00  0.00    -0.080 HD
BRANCH  21  23
ATOM     23  C   UNL     1      31.169 -23.488 -16.243  0.00  0.00    -0.058 C 
ATOM     24  C   UNL     1      29.884 -22.665 -16.257  0.00  0.00    -0.023 C 
ATOM     25  C   UNL     1      32.203 -22.908 -17.203  0.00  0.00    -0.023 C 
ENDBRANCH  21  23
BRANCH  21  26
ATOM     26  C   UNL     1      31.377 -24.799 -14.241  0.00  0.00    -0.058 C 
ATOM     27  C   UNL     1      30.780 -24.533 -12.862  0.00  0.00    -0.023 C 
ATOM     28  C   UNL     1      30.409 -25.597 -15.111  0.00  0.00    -0.023 C 
ENDBRANCH  21  26
ENDBRANCH  20  21
ENDBRANCH  19  20
ENDBRANCH   1  19
TORSDOF 8
ENDMDL
MODEL 3
REMARK VINA RESULT:      -6.9      1.663      5.973
REMARK  Name = 3114
REMARK  8 active torsions:
REMARK  status: ('A' for Active; 'I' for Inactive)
REMARK    1  A    between atoms: C_1  and  C_3
REMARK    2  A    between atoms: C_1  and  C_8
REMARK    3  A    between atoms: C_1  and  C_16
REMARK    4  A    between atoms: C_1  and  C_19
REMARK    5  A    between atoms: C_19  and  C_20
REMARK    6  A    between atoms: C_20  and  N_21
REMARK    7  A    between atoms: N_21  and  C_23
REMARK    8  A    between atoms: N_21  and  C_26
REMARK                            x       y       z     vdW  Elec       q    Type
REMARK                         _______ _______ _______ _____ _____    ______ ____
ROOT
ATOM      1  C   UNL     1      34.401 -23.388 -15.663  0.00  0.00    +0.120 C 
ENDROOT
BRANCH   1   3
ATOM      2  N   UNL     1      33.899 -23.416 -18.032  0.00  0.00    -0.247 NA
ATOM      3  C   UNL     1      34.716 -22.921 -17.116  0.00  0.00    +0.070 C 
ATOM      4  C   UNL     1      35.768 -22.083 -17.276  0.00  0.00    +0.016 C 
ATOM      5  C   UNL     1      36.023 -21.685 -18.584  0.00  0.00    +0.003 C 
ATOM      6  C   UNL     1      34.177 -23.009 -19.290  0.00  0.00    +0.098 C 
ATOM      7  C   UNL     1      35.217 -22.152 -19.616  0.00  0.00    +0.021 C 
ENDBRANCH   1   3
BRANCH   1   8
ATOM      8  C   UNL     1      32.877 -23.168 -15.442  0.00  0.00    -0.009 C 
ATOM      9  C   UNL     1      32.448 -22.945 -14.166  0.00  0.00    -0.003 C 
ATOM     10  C   UNL     1      32.064 -23.211 -16.535  0.00  0.00    -0.003 C 
ATOM     11  C   UNL     1      31.082 -22.748 -13.966  0.00  0.00    -0.000 C 
ATOM     12  C   UNL     1      30.697 -23.015 -16.336  0.00  0.00    -0.000 C 
ATOM     13  C   UNL     1      30.206 -22.783 -15.051  0.00  0.00    -0.000 C 
ENDBRANCH   1   8
BRANCH   1  16
ATOM     14  O   UNL     1      35.748 -25.425 -16.023  0.00  0.00    -0.275 OA
ATOM     15  N   UNL     1      33.942 -25.606 -14.642  0.00  0.00    -0.328 N 
ATOM     16  C   UNL     1      34.796 -24.887 -15.456  0.00  0.00    +0.227 C 
ATOM     17  H   UNL     1      34.118 -26.557 -14.460  0.00  0.00    +0.145 HD
ATOM     18  H   UNL     1      33.156 -25.166 -14.243  0.00  0.00    +0.145 HD
ENDBRANCH   1  16
BRANCH   1  19
ATOM     19  C   UNL     1      35.301 -22.614 -14.617  0.00  0.00    -0.004 C 
BRANCH  19  20
ATOM     20  C   UNL     1      36.662 -23.265 -14.312  0.00  0.00    -0.076 C 
BRANCH  20  21
ATOM     21  N   UNL     1      36.548 -24.142 -13.150  0.00  0.00    +0.390 N 
ATOM     22  H   UNL     1      35.730 -24.740 -13.279  0.00  0.00    -0.080 HD
BRANCH  21  23
ATOM     23  C   UNL     1      37.731 -24.995 -13.032  0.00  0.00    -0.058 C 
ATOM     24  C   UNL     1      37.297 -26.454 -12.933  0.00  0.00    -0.023 C 
ATOM     25  C   UNL     1      38.660 -24.778 -14.222  0.00  0.00    -0.023 C 
ENDBRANCH  21  23
BRANCH  21  26
ATOM     26  C   UNL     1      36.360 -23.358 -11.931  0.00  0.00    -0.058 C 
ATOM     27  C   UNL     1      35.819 -24.259 -10.826  0.00  0.00    -0.023 C 
ATOM     28  C   UNL     1      37.676 -22.708 -11.511  0.00  0.00    -0.023 C 
ENDBRANCH  21  26
ENDBRANCH  20  21
ENDBRANCH  19  20
ENDBRANCH   1  19
TORSDOF 8
ENDMDL
MODEL 4
REMARK VINA RESULT:      -6.8     15.326     17.648
REMARK  Name = 3114
REMARK  8 active torsions:
REMARK  status: ('A' for Active; 'I' for Inactive)
REMARK    1  A    between atoms: C_1  and  C_3
REMARK    2  A    between atoms: C_1  and  C_8
REMARK    3  A    between atoms: C_1  and  C_16
REMARK    4  A    between atoms: C_1  and  C_19
REMARK    5  A    between atoms: C_19  and  C_20
REMARK    6  A    between atoms: C_20  and  N_21
REMARK    7  A    between atoms: N_21  and  C_23
REMARK    8  A    between atoms: N_21  and  C_26
REMARK                            x       y       z     vdW  Elec       q    Type
REMARK                         _______ _______ _______ _____ _____    ______ ____
ROOT
ATOM      1  C   UNL     1      33.155  -8.589 -23.483  0.00  0.00    +0.120 C 
ENDROOT
BRANCH   1   3
ATOM      2  N   UNL     1      33.031  -7.693 -21.236  0.00  0.00    -0.247 NA
ATOM      3  C   UNL     1      32.680  -8.713 -22.004  0.00  0.00    +0.070 C 
ATOM      4  C   UNL     1      31.980  -9.825 -21.676  0.00  0.00    +0.016 C 
ATOM      5  C   UNL     1      31.572  -9.905 -20.349  0.00  0.00    +0.003 C 
ATOM      6  C   UNL     1      32.618  -7.806 -19.955  0.00  0.00    +0.098 C 
ATOM      7  C   UNL     1      31.892  -8.880 -19.466  0.00  0.00    +0.021 C 
ENDBRANCH   1   3
BRANCH   1   8
ATOM      8  C   UNL     1      32.477  -7.317 -24.067  0.00  0.00    -0.009 C 
ATOM      9  C   UNL     1      33.266  -6.430 -24.739  0.00  0.00    -0.003 C 
ATOM     10  C   UNL     1      31.136  -7.167 -23.873  0.00  0.00    -0.003 C 
ATOM     11  C   UNL     1      32.659  -5.290 -25.264  0.00  0.00    -0.000 C 
ATOM     12  C   UNL     1      30.528  -6.026 -24.397  0.00  0.00    -0.000 C 
ATOM     13  C   UNL     1      31.290  -5.087 -25.093  0.00  0.00    -0.000 C 
ENDBRANCH   1   8
BRANCH   1  16
ATOM     14  O   UNL     1      35.432  -9.404 -23.980  0.00  0.00    -0.275 OA
ATOM     15  N   UNL     1      35.252  -7.325 -23.059  0.00  0.00    -0.328 N 
ATOM     16  C   UNL     1      34.714  -8.493 -23.566  0.00  0.00    +0.227 C 
ATOM     17  H   UNL     1      36.226  -7.184 -23.073  0.00  0.00    +0.145 HD
ATOM     18  H   UNL     1      34.660  -6.633 -22.683  0.00  0.00    +0.145 HD
ENDBRANCH   1  16
BRANCH   1  19
ATOM     19  C   UNL     1      32.816  -9.905 -24.293  0.00  0.00    -0.004 C 
BRANCH  19  20
ATOM     20  C   UNL     1      33.040 -11.224 -23.532  0.00  0.00    -0.076 C 
BRANCH  20  21
ATOM     21  N   UNL     1      33.780 -12.164 -24.368  0.00  0.00    +0.390 N 
ATOM     22  H   UNL     1      34.769 -12.105 -24.121  0.00  0.00    -0.080 HD
BRANCH  21  23
ATOM     23  C   UNL     1      33.323 -13.534 -24.129  0.00  0.00    -0.058 C 
ATOM     24  C   UNL     1      34.505 -14.393 -23.690  0.00  0.00    -0.023 C 
ATOM     25  C   UNL     1      32.216 -13.546 -23.079  0.00  0.00    -0.023 C 
ENDBRANCH  21  23
BRANCH  21  26
ATOM     26  C   UNL     1      33.634 -11.819 -25.782  0.00  0.00    -0.058 C 
ATOM     27  C   UNL     1      34.963 -11.291 -26.314  0.00  0.00    -0.023 C 
ATOM     28  C   UNL     1      33.170 -13.034 -26.580  0.00  0.00    -0.023 C 
ENDBRANCH  21  26
ENDBRANCH  20  21
ENDBRANCH  19  20
ENDBRANCH   1  19
TORSDOF 8
ENDMDL
MODEL 5
REMARK VINA RESULT:      -6.6     15.262     17.630
REMARK  Name = 3114
REMARK  8 active torsions:
REMARK  status: ('A' for Active; 'I' for Inactive)
REMARK    1  A    between atoms: C_1  and  C_3
REMARK    2  A    between atoms: C_1  and  C_8
REMARK    3  A    between atoms: C_1  and  C_16
REMARK    4  A    between atoms: C_1  and  C_19
REMARK    5  A    between atoms: C_19  and  C_20
REMARK    6  A    between atoms: C_20  and  N_21
REMARK    7  A    between atoms: N_21  and  C_23
REMARK    8  A    between atoms: N_21  and  C_26
REMARK                            x       y       z     vdW  Elec       q    Type
REMARK                         _______ _______ _______ _____ _____    ______ ____
ROOT
ATOM      1  C   UNL     1      33.123  -8.580 -23.425  0.00  0.00    +0.120 C 
ENDROOT
BRANCH   1   3
ATOM      2  N   UNL     1      33.058  -7.467 -21.275  0.00  0.00    -0.247 NA
ATOM      3  C   UNL     1      32.711  -8.568 -21.922  0.00  0.00    +0.070 C 
ATOM      4  C   UNL     1      32.062  -9.662 -21.456  0.00  0.00    +0.016 C 
ATOM      5  C   UNL     1      31.709  -9.620 -20.111  0.00  0.00    +0.003 C 
ATOM      6  C   UNL     1      32.699  -7.462 -19.973  0.00  0.00    +0.098 C 
ATOM      7  C   UNL     1      32.030  -8.502 -19.349  0.00  0.00    +0.021 C 
ENDBRANCH   1   3
BRANCH   1   8
ATOM      8  C   UNL     1      32.477  -7.325 -24.078  0.00  0.00    -0.009 C 
ATOM      9  C   UNL     1      31.134  -7.146 -23.914  0.00  0.00    -0.003 C 
ATOM     10  C   UNL     1      33.292  -6.481 -24.772  0.00  0.00    -0.003 C 
ATOM     11  C   UNL     1      30.555  -6.021 -24.499  0.00  0.00    -0.000 C 
ATOM     12  C   UNL     1      32.713  -5.355 -25.358  0.00  0.00    -0.000 C 
ATOM     13  C   UNL     1      31.343  -5.125 -25.222  0.00  0.00    -0.000 C 
ENDBRANCH   1   8
BRANCH   1  16
ATOM     14  O   UNL     1      35.325  -9.503 -24.054  0.00  0.00    -0.275 OA
ATOM     15  N   UNL     1      35.305  -7.445 -23.069  0.00  0.00    -0.328 N 
ATOM     16  C   UNL     1      34.680  -8.567 -23.581  0.00  0.00    +0.227 C 
ATOM     17  H   UNL     1      36.284  -7.358 -23.127  0.00  0.00    +0.145 HD
ATOM     18  H   UNL     1      34.771  -6.734 -22.647  0.00  0.00    +0.145 HD
ENDBRANCH   1  16
BRANCH   1  19
ATOM     19  C   UNL     1      32.688  -9.936 -24.116  0.00  0.00    -0.004 C 
BRANCH  19  20
ATOM     20  C   UNL     1      33.500 -11.176 -23.701  0.00  0.00    -0.076 C 
BRANCH  20  21
ATOM     21  N   UNL     1      32.883 -12.382 -24.246  0.00  0.00    +0.390 N 
ATOM     22  H   UNL     1      31.951 -12.140 -24.588  0.00  0.00    -0.080 HD
BRANCH  21  23
ATOM     23  C   UNL     1      33.668 -12.899 -25.367  0.00  0.00    -0.058 C 
ATOM     24  C   UNL     1      32.856 -13.955 -26.111  0.00  0.00    -0.023 C 
ATOM     25  C   UNL     1      34.072 -11.761 -26.299  0.00  0.00    -0.023 C 
ENDBRANCH  21  23
BRANCH  21  26
ATOM     26  C   UNL     1      32.743 -13.402 -23.208  0.00  0.00    -0.058 C 
ATOM     27  C   UNL     1      34.125 -13.901 -22.797  0.00  0.00    -0.023 C 
ATOM     28  C   UNL     1      31.988 -12.836 -22.008  0.00  0.00    -0.023 C 
ENDBRANCH  21  26
ENDBRANCH  20  21
ENDBRANCH  19  20
ENDBRANCH   1  19
TORSDOF 8
ENDMDL
MODEL 6
REMARK VINA RESULT:      -6.4     15.870     18.360
REMARK  Name = 3114
REMARK  8 active torsions:
REMARK  status: ('A' for Active; 'I' for Inactive)
REMARK    1  A    between atoms: C_1  and  C_3
REMARK    2  A    between atoms: C_1  and  C_8
REMARK    3  A    between atoms: C_1  and  C_16
REMARK    4  A    between atoms: C_1  and  C_19
REMARK    5  A    between atoms: C_19  and  C_20
REMARK    6  A    between atoms: C_20  and  N_21
REMARK    7  A    between atoms: N_21  and  C_23
REMARK    8  A    between atoms: N_21  and  C_26
REMARK                            x       y       z     vdW  Elec       q    Type
REMARK                         _______ _______ _______ _____ _____    ______ ____
ROOT
ATOM      1  C   UNL     1      32.662  -9.286 -23.101  0.00  0.00    +0.120 C 
ENDROOT
BRANCH   1   3
ATOM      2  N   UNL     1      33.402 -10.439 -25.098  0.00  0.00    -0.247 NA
ATOM      3  C   UNL     1      33.146 -10.587 -23.808  0.00  0.00    +0.070 C 
ATOM      4  C   UNL     1      33.246 -11.700 -23.042  0.00  0.00    +0.016 C 
ATOM      5  C   UNL     1      33.680 -12.844 -23.703  0.00  0.00    +0.003 C 
ATOM      6  C   UNL     1      33.820 -11.570 -25.706  0.00  0.00    +0.098 C 
ATOM      7  C   UNL     1      33.975 -12.786 -25.060  0.00  0.00    +0.021 C 
ENDBRANCH   1   3
BRANCH   1   8
ATOM      8  C   UNL     1      32.032  -9.718 -21.746  0.00  0.00    -0.009 C 
ATOM      9  C   UNL     1      31.103 -10.717 -21.770  0.00  0.00    -0.003 C 
ATOM     10  C   UNL     1      32.446  -9.073 -20.619  0.00  0.00    -0.003 C 
ATOM     11  C   UNL     1      30.537 -11.105 -20.556  0.00  0.00    -0.000 C 
ATOM     12  C   UNL     1      31.880  -9.460 -19.404  0.00  0.00    -0.000 C 
ATOM     13  C   UNL     1      30.925 -10.477 -19.373  0.00  0.00    -0.000 C 
ENDBRANCH   1   8
BRANCH   1  16
ATOM     14  O   UNL     1      33.821  -7.363 -22.074  0.00  0.00    -0.275 OA
ATOM     15  N   UNL     1      34.921  -8.470 -23.738  0.00  0.00    -0.328 N 
ATOM     16  C   UNL     1      33.848  -8.289 -22.885  0.00  0.00    +0.227 C 
ATOM     17  H   UNL     1      35.709  -7.884 -23.669  0.00  0.00    +0.145 HD
ATOM     18  H   UNL     1      34.896  -9.184 -24.415  0.00  0.00    +0.145 HD
ENDBRANCH   1  16
BRANCH   1  19
ATOM     19  C   UNL     1      31.661  -8.483 -24.026  0.00  0.00    -0.004 C 
BRANCH  19  20
ATOM     20  C   UNL     1      30.889  -7.348 -23.331  0.00  0.00    -0.076 C 
BRANCH  20  21
ATOM     21  N   UNL     1      31.578  -6.077 -23.535  0.00  0.00    +0.390 N 
ATOM     22  H   UNL     1      32.529  -6.165 -23.173  0.00  0.00    -0.080 HD
BRANCH  21  23
ATOM     23  C   UNL     1      31.653  -5.755 -24.960  0.00  0.00    -0.058 C 
ATOM     24  C   UNL     1      30.839  -4.496 -25.240  0.00  0.00    -0.023 C 
ATOM     25  C   UNL     1      33.107  -5.575 -25.386  0.00  0.00    -0.023 C 
ENDBRANCH  21  23
BRANCH  21  26
ATOM     26  C   UNL     1      30.904  -5.004 -22.805  0.00  0.00    -0.058 C 
ATOM     27  C   UNL     1      30.374  -5.546 -21.481  0.00  0.00    -0.023 C 
ATOM     28  C   UNL     1      31.861  -3.837 -22.574  0.00  0.00    -0.023 C 
ENDBRANCH  21  26
ENDBRANCH  20  21
ENDBRANCH  19  20
ENDBRANCH   1  19
TORSDOF 8
ENDMDL
MODEL 7
REMARK VINA RESULT:      -6.4      6.931      9.571
REMARK  Name = 3114
REMARK  8 active torsions:
REMARK  status: ('A' for Active; 'I' for Inactive)
REMARK    1  A    between atoms: C_1  and  C_3
REMARK    2  A    between atoms: C_1  and  C_8
REMARK    3  A    between atoms: C_1  and  C_16
REMARK    4  A    between atoms: C_1  and  C_19
REMARK    5  A    between atoms: C_19  and  C_20
REMARK    6  A    between atoms: C_20  and  N_21
REMARK    7  A    between atoms: N_21  and  C_23
REMARK    8  A    between atoms: N_21  and  C_26
REMARK                            x       y       z     vdW  Elec       q    Type
REMARK                         _______ _______ _______ _____ _____    ______ ____
ROOT
ATOM      1  C   UNL     1      34.714 -18.240 -21.592  0.00  0.00    +0.120 C 
ENDROOT
BRANCH   1   3
ATOM      2  N   UNL     1      35.011 -15.940 -20.896  0.00  0.00    -0.247 NA
ATOM      3  C   UNL     1      34.112 -16.890 -21.100  0.00  0.00    +0.070 C 
ATOM      4  C   UNL     1      32.768 -16.841 -20.937  0.00  0.00    +0.016 C 
ATOM      5  C   UNL     1      32.263 -15.623 -20.496  0.00  0.00    +0.003 C 
ATOM      6  C   UNL     1      34.484 -14.772 -20.468  0.00  0.00    +0.098 C 
ATOM      7  C   UNL     1      33.130 -14.563 -20.256  0.00  0.00    +0.021 C 
ENDBRANCH   1   3
BRANCH   1   8
ATOM      8  C   UNL     1      34.601 -18.243 -23.143  0.00  0.00    -0.009 C 
ATOM      9  C   UNL     1      34.581 -17.037 -23.780  0.00  0.00    -0.003 C 
ATOM     10  C   UNL     1      34.531 -19.451 -23.772  0.00  0.00    -0.003 C 
ATOM     11  C   UNL     1      34.480 -17.039 -25.170  0.00  0.00    -0.000 C 
ATOM     12  C   UNL     1      34.429 -19.454 -25.163  0.00  0.00    -0.000 C 
ATOM     13  C   UNL     1      34.404 -18.247 -25.863  0.00  0.00    -0.000 C 
ENDBRANCH   1   8
BRANCH   1  16
ATOM     14  O   UNL     1      36.533 -18.571 -19.955  0.00  0.00    -0.275 OA
ATOM     15  N   UNL     1      37.140 -18.240 -22.129  0.00  0.00    -0.328 N 
ATOM     16  C   UNL     1      36.200 -18.396 -21.128  0.00  0.00    +0.227 C 
ATOM     17  H   UNL     1      38.099 -18.322 -21.921  0.00  0.00    +0.145 HD
ATOM     18  H   UNL     1      36.850 -18.047 -23.050  0.00  0.00    +0.145 HD
ENDBRANCH   1  16
BRANCH   1  19
ATOM     19  C   UNL     1      33.978 -19.465 -20.911  0.00  0.00    -0.004 C 
BRANCH  19  20
ATOM     20  C   UNL     1      34.806 -20.759 -20.813  0.00  0.00    -0.076 C 
BRANCH  20  21
ATOM     21  N   UNL     1      34.700 -21.318 -19.468  0.00  0.00    +0.390 N 
ATOM     22  H   UNL     1      34.513 -20.555 -18.816  0.00  0.00    -0.080 HD
BRANCH  21  23
ATOM     23  C   UNL     1      33.594 -22.273 -19.395  0.00  0.00    -0.058 C 
ATOM     24  C   UNL     1      34.096 -23.663 -19.772  0.00  0.00    -0.023 C 
ATOM     25  C   UNL     1      32.985 -22.270 -17.996  0.00  0.00    -0.023 C 
ENDBRANCH  21  23
BRANCH  21  26
ATOM     26  C   UNL     1      35.955 -21.961 -19.079  0.00  0.00    -0.058 C 
ATOM     27  C   UNL     1      37.019 -21.677 -20.135  0.00  0.00    -0.023 C 
ATOM     28  C   UNL     1      36.401 -21.465 -17.706  0.00  0.00    -0.023 C 
ENDBRANCH  21  26
ENDBRANCH  20  21
ENDBRANCH  19  20
ENDBRANCH   1  19
TORSDOF 8
ENDMDL
MODEL 8
REMARK VINA RESULT:      -6.3      1.712      5.922
REMARK  Name = 3114
REMARK  8 active torsions:
REMARK  status: ('A' for Active; 'I' for Inactive)
REMARK    1  A    between atoms: C_1  and  C_3
REMARK    2  A    between atoms: C_1  and  C_8
REMARK    3  A    between atoms: C_1  and  C_16
REMARK    4  A    between atoms: C_1  and  C_19
REMARK    5  A    between atoms: C_19  and  C_20
REMARK    6  A    between atoms: C_20  and  N_21
REMARK    7  A    between atoms: N_21  and  C_23
REMARK    8  A    between atoms: N_21  and  C_26
REMARK                            x       y       z     vdW  Elec       q    Type
REMARK                         _______ _______ _______ _____ _____    ______ ____
ROOT
ATOM      1  C   UNL     1      34.485 -23.477 -15.421  0.00  0.00    +0.120 C 
ENDROOT
BRANCH   1   3
ATOM      2  N   UNL     1      34.292 -22.948 -17.777  0.00  0.00    -0.247 NA
ATOM      3  C   UNL     1      35.061 -22.813 -16.708  0.00  0.00    +0.070 C 
ATOM      4  C   UNL     1      36.258 -22.189 -16.592  0.00  0.00    +0.016 C 
ATOM      5  C   UNL     1      36.745 -21.608 -17.758  0.00  0.00    +0.003 C 
ATOM      6  C   UNL     1      34.797 -22.371 -18.889  0.00  0.00    +0.098 C 
ATOM      7  C   UNL     1      36.006 -21.695 -18.932  0.00  0.00    +0.021 C 
ENDBRANCH   1   3
BRANCH   1   8
ATOM      8  C   UNL     1      32.955 -23.196 -15.417  0.00  0.00    -0.009 C 
ATOM      9  C   UNL     1      32.379 -22.844 -14.231  0.00  0.00    -0.003 C 
ATOM     10  C   UNL     1      32.284 -23.317 -16.598  0.00  0.00    -0.003 C 
ATOM     11  C   UNL     1      31.008 -22.591 -14.227  0.00  0.00    -0.000 C 
ATOM     12  C   UNL     1      30.913 -23.065 -16.594  0.00  0.00    -0.000 C 
ATOM     13  C   UNL     1      30.274 -22.702 -15.407  0.00  0.00    -0.000 C 
ENDBRANCH   1   8
BRANCH   1  16
ATOM     14  O   UNL     1      35.729 -25.533 -15.992  0.00  0.00    -0.275 OA
ATOM     15  N   UNL     1      33.847 -25.776 -14.727  0.00  0.00    -0.328 N 
ATOM     16  C   UNL     1      34.782 -25.013 -15.400  0.00  0.00    +0.227 C 
ATOM     17  H   UNL     1      33.958 -26.752 -14.667  0.00  0.00    +0.145 HD
ATOM     18  H   UNL     1      33.068 -25.343 -14.307  0.00  0.00    +0.145 HD
ENDBRANCH   1  16
BRANCH   1  19
ATOM     19  C   UNL     1      35.222 -22.935 -14.131  0.00  0.00    -0.004 C 
BRANCH  19  20
ATOM     20  C   UNL     1      35.954 -24.000 -13.294  0.00  0.00    -0.076 C 
BRANCH  20  21
ATOM     21  N   UNL     1      37.386 -23.713 -13.261  0.00  0.00    +0.390 N 
ATOM     22  H   UNL     1      37.626 -23.184 -14.101  0.00  0.00    -0.080 HD
BRANCH  21  23
ATOM     23  C   UNL     1      37.720 -22.902 -12.091  0.00  0.00    -0.058 C 
ATOM     24  C   UNL     1      36.771 -23.245 -10.947  0.00  0.00    -0.023 C 
ATOM     25  C   UNL     1      39.173 -23.132 -11.686  0.00  0.00    -0.023 C 
ENDBRANCH  21  23
BRANCH  21  26
ATOM     26  C   UNL     1      38.158 -24.954 -13.260  0.00  0.00    -0.058 C 
ATOM     27  C   UNL     1      37.245 -26.120 -12.894  0.00  0.00    -0.023 C 
ATOM     28  C   UNL     1      38.808 -25.176 -14.623  0.00  0.00    -0.023 C 
ENDBRANCH  21  26
ENDBRANCH  20  21
ENDBRANCH  19  20
ENDBRANCH   1  19
TORSDOF 8
ENDMDL
MODEL 9
REMARK VINA RESULT:      -6.3      1.648      4.666
REMARK  Name = 3114
REMARK  8 active torsions:
REMARK  status: ('A' for Active; 'I' for Inactive)
REMARK    1  A    between atoms: C_1  and  C_3
REMARK    2  A    between atoms: C_1  and  C_8
REMARK    3  A    between atoms: C_1  and  C_16
REMARK    4  A    between atoms: C_1  and  C_19
REMARK    5  A    between atoms: C_19  and  C_20
REMARK    6  A    between atoms: C_20  and  N_21
REMARK    7  A    between atoms: N_21  and  C_23
REMARK    8  A    between atoms: N_21  and  C_26
REMARK                            x       y       z     vdW  Elec       q    Type
REMARK                         _______ _______ _______ _____ _____    ______ ____
ROOT
ATOM      1  C   UNL     1      34.993 -24.026 -14.548  0.00  0.00    +0.120 C 
ENDROOT
BRANCH   1   3
ATOM      2  N   UNL     1      32.951 -25.168 -13.922  0.00  0.00    -0.247 NA
ATOM      3  C   UNL     1      33.456 -24.001 -14.293  0.00  0.00    +0.070 C 
ATOM      4  C   UNL     1      32.822 -22.819 -14.479  0.00  0.00    +0.016 C 
ATOM      5  C   UNL     1      31.452 -22.831 -14.244  0.00  0.00    +0.003 C 
ATOM      6  C   UNL     1      31.618 -25.141 -13.704  0.00  0.00    +0.098 C 
ATOM      7  C   UNL     1      30.830 -24.010 -13.849  0.00  0.00    +0.021 C 
ENDBRANCH   1   3
BRANCH   1   8
ATOM      8  C   UNL     1      35.679 -23.779 -13.174  0.00  0.00    -0.009 C 
ATOM      9  C   UNL     1      36.838 -23.058 -13.165  0.00  0.00    -0.003 C 
ATOM     10  C   UNL     1      35.082 -24.298 -12.063  0.00  0.00    -0.003 C 
ATOM     11  C   UNL     1      37.454 -22.837 -11.934  0.00  0.00    -0.000 C 
ATOM     12  C   UNL     1      35.698 -24.077 -10.832  0.00  0.00    -0.000 C 
ATOM     13  C   UNL     1      36.885 -23.346 -10.767  0.00  0.00    -0.000 C 
ENDBRANCH   1   8
BRANCH   1  16
ATOM     14  O   UNL     1      35.069 -25.787 -16.276  0.00  0.00    -0.275 OA
ATOM     15  N   UNL     1      36.226 -26.173 -14.349  0.00  0.00    -0.328 N 
ATOM     16  C   UNL     1      35.438 -25.390 -15.170  0.00  0.00    +0.227 C 
ATOM     17  H   UNL     1      36.549 -27.049 -14.664  0.00  0.00    +0.145 HD
ATOM     18  H   UNL     1      36.463 -25.857 -13.447  0.00  0.00    +0.145 HD
ENDBRANCH   1  16
BRANCH   1  19
ATOM     19  C   UNL     1      35.397 -22.962 -15.646  0.00  0.00    -0.004 C 
BRANCH  19  20
ATOM     20  C   UNL     1      34.772 -23.180 -17.036  0.00  0.00    -0.076 C 
BRANCH  20  21
ATOM     21  N   UNL     1      35.098 -22.058 -17.912  0.00  0.00    +0.390 N 
ATOM     22  H   UNL     1      34.770 -21.198 -17.469  0.00  0.00    -0.080 HD
BRANCH  21  23
ATOM     23  C   UNL     1      36.545 -21.958 -18.102  0.00  0.00    -0.058 C 
ATOM     24  C   UNL     1      36.836 -21.276 -19.435  0.00  0.00    -0.023 C 
ATOM     25  C   UNL     1      37.179 -21.193 -16.944  0.00  0.00    -0.023 C 
ENDBRANCH  21  23
BRANCH  21  26
ATOM     26  C   UNL     1      34.423 -22.200 -19.201  0.00  0.00    -0.058 C 
ATOM     27  C   UNL     1      33.952 -23.641 -19.371  0.00  0.00    -0.023 C 
ATOM     28  C   UNL     1      33.250 -21.228 -19.296  0.00  0.00    -0.023 C 
ENDBRANCH  21  26
ENDBRANCH  20  21
ENDBRANCH  19  20
ENDBRANCH   1  19
TORSDOF 8
ENDMDL
