MODEL 1
REMARK VINA RESULT:      -6.6      0.000      0.000
REMARK  Name = 447087
REMARK  0 active torsions:
REMARK  status: ('A' for Active; 'I' for Inactive)
REMARK                            x       y       z     vdW  Elec       q    Type
REMARK                         _______ _______ _______ _____ _____    ______ ____
ROOT
ATOM      1 BR   UNL     1      34.715 -23.357 -15.290  0.00  0.00    +0.005 Br
ATOM      2  O   UNL     1      37.002 -26.320 -11.906  0.00  0.00    -0.208 OA
ATOM      3  N   UNL     1      39.536 -26.158 -13.530  0.00  0.00    -0.304 N 
ATOM      4  N   UNL     1      37.380 -24.219 -15.391  0.00  0.00    -0.269 N 
ATOM      5  N   UNL     1      39.682 -24.991 -15.432  0.00  0.00    -0.303 N 
ATOM      6  N   UNL     1      36.043 -24.960 -13.509  0.00  0.00    -0.309 NA
ATOM      7  C   UNL     1      38.304 -25.603 -13.729  0.00  0.00    +0.170 C 
ATOM      8  C   UNL     1      38.431 -24.898 -14.901  0.00  0.00    +0.127 C 
ATOM      9  C   UNL     1      37.096 -25.684 -12.949  0.00  0.00    +0.223 C 
ATOM     10  C   UNL     1      40.328 -25.761 -14.579  0.00  0.00    +0.183 C 
ATOM     11  C   UNL     1      36.232 -24.310 -14.625  0.00  0.00    +0.232 C 
ATOM     12  H   UNL     1      39.805 -26.733 -12.777  0.00  0.00    +0.149 HD
ATOM     13  H   UNL     1      37.424 -23.699 -16.227  0.00  0.00    +0.156 HD
ATOM     14  H   UNL     1      40.023 -24.579 -16.259  0.00  0.00    +0.150 HD
ENDROOT
TORSDOF 0
ENDMDL
MODEL 2
REMARK VINA RESULT:      -6.5      2.701      4.036
REMARK  Name = 447087
REMARK  0 active torsions:
REMARK  status: ('A' for Active; 'I' for Inactive)
REMARK                            x       y       z     vdW  Elec       q    Type
REMARK                         _______ _______ _______ _____ _____    ______ ____
ROOT
ATOM      1 BR   UNL     1      40.171 -25.753 -14.321  0.00  0.00    +0.005 Br
ATOM      2  O   UNL     1      37.652 -22.706 -11.185  0.00  0.00    -0.208 OA
ATOM      3  N   UNL     1      35.071 -23.556 -12.490  0.00  0.00    -0.304 N 
ATOM      4  N   UNL     1      37.394 -25.380 -14.265  0.00  0.00    -0.269 N 
ATOM      5  N   UNL     1      34.993 -25.025 -14.175  0.00  0.00    -0.303 N 
ATOM      6  N   UNL     1      38.715 -24.128 -12.664  0.00  0.00    -0.309 NA
ATOM      7  C   UNL     1      36.365 -23.919 -12.736  0.00  0.00    +0.170 C 
ATOM      8  C   UNL     1      36.277 -24.817 -13.771  0.00  0.00    +0.127 C 
ATOM      9  C   UNL     1      37.594 -23.510 -12.108  0.00  0.00    +0.223 C 
ATOM     10  C   UNL     1      34.285 -24.247 -13.380  0.00  0.00    +0.183 C 
ATOM     11  C   UNL     1      38.562 -24.973 -13.646  0.00  0.00    +0.232 C 
ATOM     12  H   UNL     1      34.761 -22.919 -11.806  0.00  0.00    +0.149 HD
ATOM     13  H   UNL     1      37.381 -26.029 -15.006  0.00  0.00    +0.156 HD
ATOM     14  H   UNL     1      34.670 -25.617 -14.892  0.00  0.00    +0.150 HD
ENDROOT
TORSDOF 0
ENDMDL
MODEL 3
REMARK VINA RESULT:      -6.4     10.686     11.930
REMARK  Name = 447087
REMARK  0 active torsions:
REMARK  status: ('A' for Active; 'I' for Inactive)
REMARK                            x       y       z     vdW  Elec       q    Type
REMARK                         _______ _______ _______ _____ _____    ______ ____
ROOT
ATOM      1 BR   UNL     1      35.631 -20.639 -20.401  0.00  0.00    +0.005 Br
ATOM      2  O   UNL     1      34.959 -15.651 -20.753  0.00  0.00    -0.208 OA
ATOM      3  N   UNL     1      34.635 -15.941 -23.736  0.00  0.00    -0.304 N 
ATOM      4  N   UNL     1      35.167 -19.204 -22.763  0.00  0.00    -0.269 N 
ATOM      5  N   UNL     1      34.761 -17.915 -24.781  0.00  0.00    -0.303 N 
ATOM      6  N   UNL     1      35.255 -17.941 -20.695  0.00  0.00    -0.309 NA
ATOM      7  C   UNL     1      34.871 -16.870 -22.763  0.00  0.00    +0.170 C 
ATOM      8  C   UNL     1      34.942 -18.063 -23.439  0.00  0.00    +0.127 C 
ATOM      9  C   UNL     1      35.024 -16.725 -21.338  0.00  0.00    +0.223 C 
ATOM     10  C   UNL     1      34.577 -16.618 -24.930  0.00  0.00    +0.183 C 
ATOM     11  C   UNL     1      35.310 -19.040 -21.397  0.00  0.00    +0.232 C 
ATOM     12  H   UNL     1      34.528 -14.971 -23.606  0.00  0.00    +0.149 HD
ATOM     13  H   UNL     1      35.225 -20.082 -23.204  0.00  0.00    +0.156 HD
ATOM     14  H   UNL     1      34.765 -18.612 -25.475  0.00  0.00    +0.150 HD
ENDROOT
TORSDOF 0
ENDMDL
MODEL 4
REMARK VINA RESULT:      -6.4     12.108     13.202
REMARK  Name = 447087
REMARK  0 active torsions:
REMARK  status: ('A' for Active; 'I' for Inactive)
REMARK                            x       y       z     vdW  Elec       q    Type
REMARK                         _______ _______ _______ _____ _____    ______ ____
ROOT
ATOM      1 BR   UNL     1      32.573 -13.368 -22.908  0.00  0.00    +0.005 Br
ATOM      2  O   UNL     1      34.732 -16.879 -25.817  0.00  0.00    -0.208 OA
ATOM      3  N   UNL     1      35.809 -18.218 -23.340  0.00  0.00    -0.304 N 
ATOM      4  N   UNL     1      34.101 -15.537 -22.009  0.00  0.00    -0.269 N 
ATOM      5  N   UNL     1      35.430 -17.435 -21.280  0.00  0.00    -0.303 N 
ATOM      6  N   UNL     1      33.782 -15.320 -24.403  0.00  0.00    -0.309 NA
ATOM      7  C   UNL     1      35.044 -17.097 -23.496  0.00  0.00    +0.170 C 
ATOM      8  C   UNL     1      34.833 -16.646 -22.216  0.00  0.00    +0.127 C 
ATOM      9  C   UNL     1      34.532 -16.462 -24.683  0.00  0.00    +0.223 C 
ATOM     10  C   UNL     1      36.014 -18.379 -21.992  0.00  0.00    +0.183 C 
ATOM     11  C   UNL     1      33.619 -14.946 -23.163  0.00  0.00    +0.232 C 
ATOM     12  H   UNL     1      36.149 -18.799 -24.058  0.00  0.00    +0.149 HD
ATOM     13  H   UNL     1      33.922 -15.177 -21.110  0.00  0.00    +0.156 HD
ATOM     14  H   UNL     1      35.426 -17.326 -20.301  0.00  0.00    +0.150 HD
ENDROOT
TORSDOF 0
ENDMDL
MODEL 5
REMARK VINA RESULT:      -6.1     13.475     14.625
REMARK  Name = 447087
REMARK  0 active torsions:
REMARK  status: ('A' for Active; 'I' for Inactive)
REMARK                            x       y       z     vdW  Elec       q    Type
REMARK                         _______ _______ _______ _____ _____    ______ ____
ROOT
ATOM      1 BR   UNL     1      32.898 -13.410 -27.013  0.00  0.00    +0.005 Br
ATOM      2  O   UNL     1      34.589 -17.929 -25.535  0.00  0.00    -0.208 OA
ATOM      3  N   UNL     1      34.825 -16.880 -22.719  0.00  0.00    -0.304 N 
ATOM      4  N   UNL     1      33.639 -14.118 -24.405  0.00  0.00    -0.269 N 
ATOM      5  N   UNL     1      34.290 -14.781 -22.161  0.00  0.00    -0.303 N 
ATOM      6  N   UNL     1      33.825 -15.828 -26.114  0.00  0.00    -0.309 NA
ATOM      7  C   UNL     1      34.410 -16.275 -23.872  0.00  0.00    +0.170 C 
ATOM      8  C   UNL     1      34.091 -14.995 -23.491  0.00  0.00    +0.127 C 
ATOM      9  C   UNL     1      34.299 -16.783 -25.215  0.00  0.00    +0.223 C 
ATOM     10  C   UNL     1      34.734 -15.941 -21.720  0.00  0.00    +0.183 C 
ATOM     11  C   UNL     1      33.540 -14.628 -25.687  0.00  0.00    +0.232 C 
ATOM     12  H   UNL     1      35.131 -17.810 -22.623  0.00  0.00    +0.149 HD
ATOM     13  H   UNL     1      33.397 -13.190 -24.179  0.00  0.00    +0.156 HD
ATOM     14  H   UNL     1      34.136 -13.954 -21.649  0.00  0.00    +0.150 HD
ENDROOT
TORSDOF 0
ENDMDL
MODEL 6
REMARK VINA RESULT:      -6.1     12.537     13.881
REMARK  Name = 447087
REMARK  0 active torsions:
REMARK  status: ('A' for Active; 'I' for Inactive)
REMARK                            x       y       z     vdW  Elec       q    Type
REMARK                         _______ _______ _______ _____ _____    ______ ____
ROOT
ATOM      1 BR   UNL     1      36.000 -18.685 -21.336  0.00  0.00    +0.005 Br
ATOM      2  O   UNL     1      34.619 -16.865 -25.835  0.00  0.00    -0.208 OA
ATOM      3  N   UNL     1      33.636 -14.358 -24.479  0.00  0.00    -0.304 N 
ATOM      4  N   UNL     1      34.801 -16.197 -21.807  0.00  0.00    -0.269 N 
ATOM      5  N   UNL     1      33.762 -14.050 -22.267  0.00  0.00    -0.303 N 
ATOM      6  N   UNL     1      35.216 -17.611 -23.732  0.00  0.00    -0.309 NA
ATOM      7  C   UNL     1      34.214 -15.487 -23.971  0.00  0.00    +0.170 C 
ATOM      8  C   UNL     1      34.274 -15.263 -22.618  0.00  0.00    +0.127 C 
ATOM      9  C   UNL     1      34.682 -16.683 -24.625  0.00  0.00    +0.223 C 
ATOM     10  C   UNL     1      33.384 -13.526 -23.416  0.00  0.00    +0.183 C 
ATOM     11  C   UNL     1      35.244 -17.335 -22.457  0.00  0.00    +0.232 C 
ATOM     12  H   UNL     1      33.438 -14.177 -25.426  0.00  0.00    +0.149 HD
ATOM     13  H   UNL     1      34.866 -16.080 -20.831  0.00  0.00    +0.156 HD
ATOM     14  H   UNL     1      33.692 -13.658 -21.367  0.00  0.00    +0.150 HD
ENDROOT
TORSDOF 0
ENDMDL
MODEL 7
REMARK VINA RESULT:      -6.1      6.739      8.178
REMARK  Name = 447087
REMARK  0 active torsions:
REMARK  status: ('A' for Active; 'I' for Inactive)
REMARK                            x       y       z     vdW  Elec       q    Type
REMARK                         _______ _______ _______ _____ _____    ______ ____
ROOT
ATOM      1 BR   UNL     1      32.720 -23.387 -17.169  0.00  0.00    +0.005 Br
ATOM      2  O   UNL     1      36.924 -21.640 -19.346  0.00  0.00    -0.208 OA
ATOM      3  N   UNL     1      35.233 -19.871 -21.107  0.00  0.00    -0.304 N 
ATOM      4  N   UNL     1      32.842 -21.479 -19.218  0.00  0.00    -0.269 N 
ATOM      5  N   UNL     1      33.000 -19.827 -20.991  0.00  0.00    -0.303 N 
ATOM      6  N   UNL     1      34.944 -22.378 -18.412  0.00  0.00    -0.309 NA
ATOM      7  C   UNL     1      34.887 -20.763 -20.132  0.00  0.00    +0.170 C 
ATOM      8  C   UNL     1      33.516 -20.709 -20.090  0.00  0.00    +0.127 C 
ATOM      9  C   UNL     1      35.700 -21.605 -19.293  0.00  0.00    +0.223 C 
ATOM     10  C   UNL     1      34.066 -19.336 -21.593  0.00  0.00    +0.183 C 
ATOM     11  C   UNL     1      33.643 -22.278 -18.422  0.00  0.00    +0.232 C 
ATOM     12  H   UNL     1      36.146 -19.654 -21.406  0.00  0.00    +0.149 HD
ATOM     13  H   UNL     1      31.859 -21.474 -19.151  0.00  0.00    +0.156 HD
ATOM     14  H   UNL     1      32.054 -19.608 -21.154  0.00  0.00    +0.150 HD
ENDROOT
TORSDOF 0
ENDMDL
MODEL 8
REMARK VINA RESULT:      -6.1      1.656      2.047
REMARK  Name = 447087
REMARK  0 active torsions:
REMARK  status: ('A' for Active; 'I' for Inactive)
REMARK                            x       y       z     vdW  Elec       q    Type
REMARK                         _______ _______ _______ _____ _____    ______ ____
ROOT
ATOM      1 BR   UNL     1      32.713 -23.442 -14.645  0.00  0.00    +0.005 Br
ATOM      2  O   UNL     1      35.767 -24.968 -10.930  0.00  0.00    -0.208 OA
ATOM      3  N   UNL     1      37.789 -25.829 -12.994  0.00  0.00    -0.304 N 
ATOM      4  N   UNL     1      35.245 -24.599 -14.966  0.00  0.00    -0.269 N 
ATOM      5  N   UNL     1      37.445 -25.602 -15.192  0.00  0.00    -0.303 N 
ATOM      6  N   UNL     1      34.440 -24.301 -12.699  0.00  0.00    -0.309 NA
ATOM      7  C   UNL     1      36.554 -25.259 -13.127  0.00  0.00    +0.170 C 
ATOM      8  C   UNL     1      36.379 -25.136 -14.484  0.00  0.00    +0.127 C 
ATOM      9  C   UNL     1      35.593 -24.849 -12.136  0.00  0.00    +0.223 C 
ATOM     10  C   UNL     1      38.283 -26.016 -14.261  0.00  0.00    +0.183 C 
ATOM     11  C   UNL     1      34.338 -24.212 -13.997  0.00  0.00    +0.232 C 
ATOM     12  H   UNL     1      38.237 -26.063 -12.149  0.00  0.00    +0.149 HD
ATOM     13  H   UNL     1      35.075 -24.489 -15.930  0.00  0.00    +0.156 HD
ATOM     14  H   UNL     1      37.563 -25.624 -16.169  0.00  0.00    +0.150 HD
ENDROOT
TORSDOF 0
ENDMDL
MODEL 9
REMARK VINA RESULT:      -6.1     11.965     13.015
REMARK  Name = 447087
REMARK  0 active torsions:
REMARK  status: ('A' for Active; 'I' for Inactive)
REMARK                            x       y       z     vdW  Elec       q    Type
REMARK                         _______ _______ _______ _____ _____    ______ ____
ROOT
ATOM      1 BR   UNL     1      33.579 -12.693 -23.982  0.00  0.00    +0.005 Br
ATOM      2  O   UNL     1      34.867 -15.613 -20.073  0.00  0.00    -0.208 OA
ATOM      3  N   UNL     1      35.485 -17.852 -21.996  0.00  0.00    -0.304 N 
ATOM      4  N   UNL     1      34.469 -15.346 -24.132  0.00  0.00    -0.269 N 
ATOM      5  N   UNL     1      35.246 -17.646 -24.210  0.00  0.00    -0.303 N 
ATOM      6  N   UNL     1      34.299 -14.355 -21.926  0.00  0.00    -0.309 NA
ATOM      7  C   UNL     1      35.035 -16.580 -22.211  0.00  0.00    +0.170 C 
ATOM      8  C   UNL     1      34.900 -16.491 -23.575  0.00  0.00    +0.127 C 
ATOM      9  C   UNL     1      34.742 -15.514 -21.288  0.00  0.00    +0.223 C 
ATOM     10  C   UNL     1      35.596 -18.451 -23.226  0.00  0.00    +0.183 C 
ATOM     11  C   UNL     1      34.195 -14.337 -23.227  0.00  0.00    +0.232 C 
ATOM     12  H   UNL     1      35.690 -18.260 -21.124  0.00  0.00    +0.149 HD
ATOM     13  H   UNL     1      34.357 -15.235 -25.104  0.00  0.00    +0.156 HD
ATOM     14  H   UNL     1      35.237 -17.834 -25.176  0.00  0.00    +0.150 HD
ENDROOT
TORSDOF 0
ENDMDL
