MODEL 1
REMARK VINA RESULT:      -7.1      0.000      0.000
REMARK  Name = 3563
REMARK  1 active torsions:
REMARK  status: ('A' for Active; 'I' for Inactive)
REMARK    1  A    between atoms: C_6  and  C_20
REMARK                            x       y       z     vdW  Elec       q    Type
REMARK                         _______ _______ _______ _____ _____    ______ ____
ROOT
ATOM      1 BR   UNL     1      30.321 -25.546 -14.918  0.00  0.00    -0.049 Br
ATOM      2  O   UNL     1      35.497 -25.939 -15.864  0.00  0.00    -0.371 OA
ATOM      3  O   UNL     1      37.529 -23.057 -11.868  0.00  0.00    -0.277 OA
ATOM      4  N   UNL     1      36.706 -25.476 -13.900  0.00  0.00    +0.417 N 
ATOM      5  N   UNL     1      35.328 -23.054 -12.510  0.00  0.00    -0.286 N 
ATOM      6  C   UNL     1      35.695 -24.929 -14.833  0.00  0.00    +0.099 C 
ATOM      7  C   UNL     1      36.692 -26.918 -14.134  0.00  0.00    -0.040 C 
ATOM      8  C   UNL     1      34.332 -24.612 -14.167  0.00  0.00    +0.003 C 
ATOM      9  C   UNL     1      36.457 -26.970 -15.620  0.00  0.00    +0.118 C 
ATOM     10  C   UNL     1      36.581 -25.166 -12.488  0.00  0.00    +0.015 C 
ATOM     11  C   UNL     1      34.214 -23.630 -13.157  0.00  0.00    +0.047 C 
ATOM     12  C   UNL     1      36.545 -23.668 -12.288  0.00  0.00    +0.205 C 
ATOM     13  C   UNL     1      33.144 -25.186 -14.662  0.00  0.00    +0.004 C 
ATOM     14  C   UNL     1      32.952 -23.167 -12.759  0.00  0.00    +0.015 C 
ATOM     15  C   UNL     1      31.891 -24.759 -14.217  0.00  0.00    +0.034 C 
ATOM     16  C   UNL     1      31.794 -23.737 -13.281  0.00  0.00    +0.008 C 
ATOM     17  H   UNL     1      37.593 -25.017 -14.107  0.00  0.00    -0.074 HD
ATOM     18  H   UNL     1      35.228 -22.130 -12.186  0.00  0.00    +0.155 HD
ENDROOT
BRANCH   6  20
ATOM     19  F   UNL     1      34.120 -23.493 -16.728  0.00  0.00    -0.204 F 
ATOM     20  C   UNL     1      36.216 -23.713 -15.636  0.00  0.00    +0.016 C 
ATOM     21  C   UNL     1      35.379 -23.071 -16.541  0.00  0.00    +0.137 C 
ATOM     22  C   UNL     1      37.521 -23.273 -15.444  0.00  0.00    -0.002 C 
ATOM     23  C   UNL     1      35.852 -21.975 -17.263  0.00  0.00    +0.029 C 
ATOM     24  C   UNL     1      37.995 -22.177 -16.166  0.00  0.00    -0.000 C 
ATOM     25  C   UNL     1      37.160 -21.529 -17.075  0.00  0.00    +0.002 C 
ENDBRANCH   6  20
TORSDOF 1
ENDMDL
MODEL 2
REMARK VINA RESULT:      -5.8      2.239      3.880
REMARK  Name = 3563
REMARK  1 active torsions:
REMARK  status: ('A' for Active; 'I' for Inactive)
REMARK    1  A    between atoms: C_6  and  C_20
REMARK                            x       y       z     vdW  Elec       q    Type
REMARK                         _______ _______ _______ _____ _____    ______ ____
ROOT
ATOM      1 BR   UNL     1      30.646 -24.259 -13.536  0.00  0.00    -0.049 Br
ATOM      2  O   UNL     1      35.716 -24.819 -12.188  0.00  0.00    -0.371 OA
ATOM      3  O   UNL     1      38.164 -22.259 -16.170  0.00  0.00    -0.277 OA
ATOM      4  N   UNL     1      37.014 -23.172 -13.255  0.00  0.00    +0.417 N 
ATOM      5  N   UNL     1      35.966 -22.910 -16.175  0.00  0.00    -0.286 N 
ATOM      6  C   UNL     1      36.056 -24.275 -13.496  0.00  0.00    +0.099 C 
ATOM      7  C   UNL     1      36.823 -22.809 -11.853  0.00  0.00    -0.040 C 
ATOM      8  C   UNL     1      34.756 -23.832 -14.212  0.00  0.00    +0.003 C 
ATOM      9  C   UNL     1      36.551 -24.156 -11.237  0.00  0.00    +0.118 C 
ATOM     10  C   UNL     1      36.957 -22.008 -14.118  0.00  0.00    +0.015 C 
ATOM     11  C   UNL     1      34.777 -23.303 -15.523  0.00  0.00    +0.047 C 
ATOM     12  C   UNL     1      37.105 -22.426 -15.562  0.00  0.00    +0.205 C 
ATOM     13  C   UNL     1      33.497 -24.089 -13.632  0.00  0.00    +0.004 C 
ATOM     14  C   UNL     1      33.588 -23.161 -16.253  0.00  0.00    +0.015 C 
ATOM     15  C   UNL     1      32.313 -23.888 -14.347  0.00  0.00    +0.034 C 
ATOM     16  C   UNL     1      32.360 -23.443 -15.662  0.00  0.00    +0.008 C 
ATOM     17  H   UNL     1      37.945 -23.521 -13.483  0.00  0.00    -0.074 HD
ATOM     18  H   UNL     1      35.984 -22.987 -17.155  0.00  0.00    +0.155 HD
ENDROOT
BRANCH   6  20
ATOM     19  F   UNL     1      38.777 -25.056 -13.148  0.00  0.00    -0.204 F 
ATOM     20  C   UNL     1      36.701 -25.483 -14.217  0.00  0.00    +0.016 C 
ATOM     21  C   UNL     1      38.037 -25.793 -13.989  0.00  0.00    +0.137 C 
ATOM     22  C   UNL     1      35.936 -26.248 -15.090  0.00  0.00    -0.002 C 
ATOM     23  C   UNL     1      38.615 -26.882 -14.641  0.00  0.00    +0.029 C 
ATOM     24  C   UNL     1      36.514 -27.338 -15.743  0.00  0.00    -0.000 C 
ATOM     25  C   UNL     1      37.853 -27.654 -15.517  0.00  0.00    +0.002 C 
ENDBRANCH   6  20
TORSDOF 1
ENDMDL
