MODEL 1
REMARK VINA RESULT:      -4.7      0.000      0.000
REMARK  Name = 7057884
REMARK  1 active torsions:
REMARK  status: ('A' for Active; 'I' for Inactive)
REMARK    1  A    between atoms: C_3  and  N_7
REMARK                            x       y       z     vdW  Elec       q    Type
REMARK                         _______ _______ _______ _____ _____    ______ ____
ROOT
ATOM      1  O   UNL     1      37.090 -23.917 -10.793  0.00  0.00    -0.450 OA
ATOM      2  O   UNL     1      35.235 -25.167 -10.280  0.00  0.00    -0.252 OA
ATOM      3  C   UNL     1      35.282 -23.768 -12.276  0.00  0.00    +0.040 C 
ATOM      4  C   UNL     1      36.555 -23.386 -12.997  0.00  0.00    +0.036 C 
ATOM      5  C   UNL     1      37.461 -23.020 -11.848  0.00  0.00    +0.207 C 
ATOM      6  C   UNL     1      35.822 -24.392 -11.020  0.00  0.00    +0.296 C 
ENDROOT
BRANCH   3   7
ATOM      7  N   UNL     1      34.489 -24.733 -13.011  0.00  0.00    +0.389 N 
ATOM      8  H   UNL     1      34.037 -25.371 -12.356  0.00  0.00    -0.088 HD
ATOM      9  H   UNL     1      35.096 -25.264 -13.638  0.00  0.00    -0.088 HD
ATOM     10  H   UNL     1      33.779 -24.246 -13.557  0.00  0.00    -0.088 HD
ENDBRANCH   3   7
TORSDOF 1
ENDMDL
MODEL 2
REMARK VINA RESULT:      -4.3      3.934      4.168
REMARK  Name = 7057884
REMARK  1 active torsions:
REMARK  status: ('A' for Active; 'I' for Inactive)
REMARK    1  A    between atoms: C_3  and  N_7
REMARK                            x       y       z     vdW  Elec       q    Type
REMARK                         _______ _______ _______ _____ _____    ______ ____
ROOT
ATOM      1  O   UNL     1      38.892 -26.322 -15.107  0.00  0.00    -0.450 OA
ATOM      2  O   UNL     1      36.823 -27.042 -15.791  0.00  0.00    -0.252 OA
ATOM      3  C   UNL     1      37.141 -26.096 -13.567  0.00  0.00    +0.040 C 
ATOM      4  C   UNL     1      38.237 -25.111 -13.228  0.00  0.00    +0.036 C 
ATOM      5  C   UNL     1      39.428 -25.728 -13.917  0.00  0.00    +0.207 C 
ATOM      6  C   UNL     1      37.546 -26.536 -14.946  0.00  0.00    +0.296 C 
ENDROOT
BRANCH   3   7
ATOM      7  N   UNL     1      35.829 -25.483 -13.604  0.00  0.00    +0.389 N 
ATOM      8  H   UNL     1      35.902 -24.504 -13.327  0.00  0.00    -0.088 HD
ATOM      9  H   UNL     1      35.206 -25.972 -12.960  0.00  0.00    -0.088 HD
ATOM     10  H   UNL     1      35.452 -25.541 -14.550  0.00  0.00    -0.088 HD
ENDBRANCH   3   7
TORSDOF 1
ENDMDL
MODEL 3
REMARK VINA RESULT:      -4.3     11.762     12.394
REMARK  Name = 7057884
REMARK  1 active torsions:
REMARK  status: ('A' for Active; 'I' for Inactive)
REMARK    1  A    between atoms: C_3  and  N_7
REMARK                            x       y       z     vdW  Elec       q    Type
REMARK                         _______ _______ _______ _____ _____    ______ ____
ROOT
ATOM      1  O   UNL     1      35.031 -16.299 -20.269  0.00  0.00    -0.450 OA
ATOM      2  O   UNL     1      35.786 -18.419 -20.715  0.00  0.00    -0.252 OA
ATOM      3  C   UNL     1      34.741 -17.075 -22.460  0.00  0.00    +0.040 C 
ATOM      4  C   UNL     1      34.739 -15.563 -22.460  0.00  0.00    +0.036 C 
ATOM      5  C   UNL     1      34.397 -15.257 -21.023  0.00  0.00    +0.207 C 
ATOM      6  C   UNL     1      35.267 -17.377 -21.085  0.00  0.00    +0.296 C 
ENDROOT
BRANCH   3   7
ATOM      7  N   UNL     1      35.625 -17.634 -23.465  0.00  0.00    +0.389 N 
ATOM      8  H   UNL     1      35.564 -17.078 -24.318  0.00  0.00    -0.088 HD
ATOM      9  H   UNL     1      35.346 -18.595 -23.665  0.00  0.00    -0.088 HD
ATOM     10  H   UNL     1      36.584 -17.622 -23.119  0.00  0.00    -0.088 HD
ENDBRANCH   3   7
TORSDOF 1
ENDMDL
MODEL 4
REMARK VINA RESULT:      -4.3     11.384     12.030
REMARK  Name = 7057884
REMARK  1 active torsions:
REMARK  status: ('A' for Active; 'I' for Inactive)
REMARK    1  A    between atoms: C_3  and  N_7
REMARK                            x       y       z     vdW  Elec       q    Type
REMARK                         _______ _______ _______ _____ _____    ______ ____
ROOT
ATOM      1  O   UNL     1      34.703 -18.765 -20.712  0.00  0.00    -0.450 OA
ATOM      2  O   UNL     1      35.195 -16.538 -20.465  0.00  0.00    -0.252 OA
ATOM      3  C   UNL     1      35.741 -17.713 -22.530  0.00  0.00    +0.040 C 
ATOM      4  C   UNL     1      34.994 -18.934 -23.017  0.00  0.00    +0.036 C 
ATOM      5  C   UNL     1      34.866 -19.741 -21.750  0.00  0.00    +0.207 C 
ATOM      6  C   UNL     1      35.188 -17.555 -21.141  0.00  0.00    +0.296 C 
ENDROOT
BRANCH   3   7
ATOM      7  N   UNL     1      35.454 -16.530 -23.317  0.00  0.00    +0.389 N 
ATOM      8  H   UNL     1      35.495 -15.705 -22.719  0.00  0.00    -0.088 HD
ATOM      9  H   UNL     1      34.520 -16.609 -23.723  0.00  0.00    -0.088 HD
ATOM     10  H   UNL     1      36.142 -16.443 -24.065  0.00  0.00    -0.088 HD
ENDBRANCH   3   7
TORSDOF 1
ENDMDL
MODEL 5
REMARK VINA RESULT:      -4.3      4.144      4.477
REMARK  Name = 7057884
REMARK  1 active torsions:
REMARK  status: ('A' for Active; 'I' for Inactive)
REMARK    1  A    between atoms: C_3  and  N_7
REMARK                            x       y       z     vdW  Elec       q    Type
REMARK                         _______ _______ _______ _____ _____    ______ ____
ROOT
ATOM      1  O   UNL     1      37.198 -26.942 -13.526  0.00  0.00    -0.450 OA
ATOM      2  O   UNL     1      37.297 -27.013 -15.817  0.00  0.00    -0.252 OA
ATOM      3  C   UNL     1      38.261 -25.144 -14.585  0.00  0.00    +0.040 C 
ATOM      4  C   UNL     1      38.756 -25.250 -13.159  0.00  0.00    +0.036 C 
ATOM      5  C   UNL     1      37.647 -26.038 -12.508  0.00  0.00    +0.207 C 
ATOM      6  C   UNL     1      37.557 -26.460 -14.759  0.00  0.00    +0.296 C 
ENDROOT
BRANCH   3   7
ATOM      7  N   UNL     1      39.340 -25.025 -15.545  0.00  0.00    +0.389 N 
ATOM      8  H   UNL     1      39.968 -24.272 -15.260  0.00  0.00    -0.088 HD
ATOM      9  H   UNL     1      38.954 -24.814 -16.466  0.00  0.00    -0.088 HD
ATOM     10  H   UNL     1      39.859 -25.902 -15.586  0.00  0.00    -0.088 HD
ENDBRANCH   3   7
TORSDOF 1
ENDMDL
MODEL 6
REMARK VINA RESULT:      -4.3      3.850      4.520
REMARK  Name = 7057884
REMARK  1 active torsions:
REMARK  status: ('A' for Active; 'I' for Inactive)
REMARK    1  A    between atoms: C_3  and  N_7
REMARK                            x       y       z     vdW  Elec       q    Type
REMARK                         _______ _______ _______ _____ _____    ______ ____
ROOT
ATOM      1  O   UNL     1      38.983 -26.528 -14.542  0.00  0.00    -0.450 OA
ATOM      2  O   UNL     1      40.502 -24.927 -13.915  0.00  0.00    -0.252 OA
ATOM      3  C   UNL     1      38.175 -24.785 -13.201  0.00  0.00    +0.040 C 
ATOM      4  C   UNL     1      37.273 -25.990 -13.054  0.00  0.00    +0.036 C 
ATOM      5  C   UNL     1      37.587 -26.763 -14.310  0.00  0.00    +0.207 C 
ATOM      6  C   UNL     1      39.370 -25.385 -13.890  0.00  0.00    +0.296 C 
ENDROOT
BRANCH   3   7
ATOM      7  N   UNL     1      38.568 -24.220 -11.925  0.00  0.00    +0.389 N 
ATOM      8  H   UNL     1      38.236 -23.258 -11.862  0.00  0.00    -0.088 HD
ATOM      9  H   UNL     1      39.586 -24.234 -11.846  0.00  0.00    -0.088 HD
ATOM     10  H   UNL     1      38.161 -24.770 -11.169  0.00  0.00    -0.088 HD
ENDBRANCH   3   7
TORSDOF 1
ENDMDL
MODEL 7
REMARK VINA RESULT:      -4.3      8.445      9.052
REMARK  Name = 7057884
REMARK  1 active torsions:
REMARK  status: ('A' for Active; 'I' for Inactive)
REMARK    1  A    between atoms: C_3  and  N_7
REMARK                            x       y       z     vdW  Elec       q    Type
REMARK                         _______ _______ _______ _____ _____    ______ ____
ROOT
ATOM      1  O   UNL     1      33.048 -21.389 -19.573  0.00  0.00    -0.450 OA
ATOM      2  O   UNL     1      34.767 -22.516 -18.552  0.00  0.00    -0.252 OA
ATOM      3  C   UNL     1      35.216 -20.877 -20.300  0.00  0.00    +0.040 C 
ATOM      4  C   UNL     1      34.295 -19.720 -20.615  0.00  0.00    +0.036 C 
ATOM      5  C   UNL     1      32.944 -20.389 -20.595  0.00  0.00    +0.207 C 
ATOM      6  C   UNL     1      34.370 -21.688 -19.358  0.00  0.00    +0.296 C 
ENDROOT
BRANCH   3   7
ATOM      7  N   UNL     1      36.436 -20.459 -19.640  0.00  0.00    +0.389 N 
ATOM      8  H   UNL     1      36.559 -19.453 -19.757  0.00  0.00    -0.088 HD
ATOM      9  H   UNL     1      37.231 -20.948 -20.053  0.00  0.00    -0.088 HD
ATOM     10  H   UNL     1      36.379 -20.681 -18.646  0.00  0.00    -0.088 HD
ENDBRANCH   3   7
TORSDOF 1
ENDMDL
MODEL 8
REMARK VINA RESULT:      -4.3      1.918      2.322
REMARK  Name = 7057884
REMARK  1 active torsions:
REMARK  status: ('A' for Active; 'I' for Inactive)
REMARK    1  A    between atoms: C_3  and  N_7
REMARK                            x       y       z     vdW  Elec       q    Type
REMARK                         _______ _______ _______ _____ _____    ______ ____
ROOT
ATOM      1  O   UNL     1      34.756 -23.978 -11.681  0.00  0.00    -0.450 OA
ATOM      2  O   UNL     1      36.083 -24.208  -9.823  0.00  0.00    -0.252 OA
ATOM      3  C   UNL     1      37.032 -24.377 -12.062  0.00  0.00    +0.040 C 
ATOM      4  C   UNL     1      36.431 -23.705 -13.276  0.00  0.00    +0.036 C 
ATOM      5  C   UNL     1      34.964 -24.008 -13.099  0.00  0.00    +0.207 C 
ATOM      6  C   UNL     1      35.952 -24.172 -11.037  0.00  0.00    +0.296 C 
ENDROOT
BRANCH   3   7
ATOM      7  N   UNL     1      38.261 -23.745 -11.623  0.00  0.00    +0.389 N 
ATOM      8  H   UNL     1      38.902 -24.456 -11.271  0.00  0.00    -0.088 HD
ATOM      9  H   UNL     1      38.054 -23.077 -10.880  0.00  0.00    -0.088 HD
ATOM     10  H   UNL     1      38.693 -23.258 -12.408  0.00  0.00    -0.088 HD
ENDBRANCH   3   7
TORSDOF 1
ENDMDL
MODEL 9
REMARK VINA RESULT:      -4.3      8.219      8.754
REMARK  Name = 7057884
REMARK  1 active torsions:
REMARK  status: ('A' for Active; 'I' for Inactive)
REMARK    1  A    between atoms: C_3  and  N_7
REMARK                            x       y       z     vdW  Elec       q    Type
REMARK                         _______ _______ _______ _____ _____    ______ ____
ROOT
ATOM      1  O   UNL     1      34.829 -20.075 -20.110  0.00  0.00    -0.450 OA
ATOM      2  O   UNL     1      32.538 -20.163 -20.204  0.00  0.00    -0.252 OA
ATOM      3  C   UNL     1      33.829 -22.086 -19.444  0.00  0.00    +0.040 C 
ATOM      4  C   UNL     1      35.200 -21.975 -18.814  0.00  0.00    +0.036 C 
ATOM      5  C   UNL     1      35.874 -20.977 -19.722  0.00  0.00    +0.207 C 
ATOM      6  C   UNL     1      33.611 -20.685 -19.943  0.00  0.00    +0.296 C 
ENDROOT
BRANCH   3   7
ATOM      7  N   UNL     1      32.800 -22.440 -18.487  0.00  0.00    +0.389 N 
ATOM      8  H   UNL     1      31.882 -22.335 -18.919  0.00  0.00    -0.088 HD
ATOM      9  H   UNL     1      32.865 -21.825 -17.674  0.00  0.00    -0.088 HD
ATOM     10  H   UNL     1      32.927 -23.408 -18.191  0.00  0.00    -0.088 HD
ENDBRANCH   3   7
TORSDOF 1
ENDMDL
