MODEL 1
REMARK VINA RESULT:      -6.7      0.000      0.000
REMARK  Name = 104625
REMARK  9 active torsions:
REMARK  status: ('A' for Active; 'I' for Inactive)
REMARK    1  A    between atoms: C_1  and  C_2
REMARK    2  A    between atoms: C_1  and  CA_11
REMARK    3  A    between atoms: C_2  and  C_4
REMARK    4  A    between atoms: C_2  and  C_8
REMARK    5  A    between atoms: C_4  and  O_5
REMARK    6  A    between atoms: C_8  and  O_9
REMARK    7  A    between atoms: CA_11  and  N_12
REMARK    8  A    between atoms: CA_11  and  C_17
REMARK    9  A    between atoms: C_17  and  O_18
REMARK                            x       y       z     vdW  Elec       q    Type
REMARK                         _______ _______ _______ _____ _____    ______ ____
ROOT
ATOM      1  C   UNL     1      37.133 -25.349 -13.018  0.00  0.00    +0.011 C 
ENDROOT
BRANCH   1   2
ATOM      2  C   UNL     1      36.562 -24.086 -12.345  0.00  0.00    +0.195 C 
BRANCH   2   4
ATOM      3  O   UNL     1      38.881 -23.572 -11.759  0.00  0.00    -0.250 OA
ATOM      4  C   UNL     1      37.695 -23.278 -11.736  0.00  0.00    +0.324 C 
BRANCH   4   5
ATOM      5  O   UNL     1      37.215 -22.161 -11.128  0.00  0.00    -0.480 OA
ATOM      6  H   UNL     1      36.992 -21.409 -11.639  0.00  0.00    +0.295 HD
ENDBRANCH   4   5
ENDBRANCH   2   4
BRANCH   2   8
ATOM      7  O   UNL     1      35.641 -24.395 -10.107  0.00  0.00    -0.250 OA
ATOM      8  C   UNL     1      35.515 -24.483 -11.320  0.00  0.00    +0.324 C 
BRANCH   8   9
ATOM      9  O   UNL     1      34.409 -24.983 -11.925  0.00  0.00    -0.480 OA
ATOM     10  H   UNL     1      33.602 -24.508 -11.894  0.00  0.00    +0.295 HD
ENDBRANCH   8   9
ENDBRANCH   2   8
ENDBRANCH   1   2
BRANCH   1  11
ATOM     11  CA  UNL     1      36.843 -25.453 -14.524  0.00  0.00    +0.037 C 
BRANCH  11  12
ATOM     12  N   UNL     1      35.396 -25.557 -14.734  0.00  0.00    +0.389 N 
ATOM     13  H1  UNL     1      34.913 -24.924 -14.097  0.00  0.00    -0.088 HD
ATOM     14  H2  UNL     1      35.094 -26.515 -14.555  0.00  0.00    -0.088 HD
ATOM     15  H3  UNL     1      35.174 -25.305 -15.698  0.00  0.00    -0.088 HD
ENDBRANCH  11  12
BRANCH  11  17
ATOM     16  OXT UNL     1      38.470 -27.258 -14.696  0.00  0.00    -0.253 OA
ATOM     17  C   UNL     1      37.456 -26.711 -15.113  0.00  0.00    +0.293 C 
BRANCH  17  18
ATOM     18  O   UNL     1      36.767 -27.166 -16.190  0.00  0.00    -0.482 OA
ATOM     19  H   UNL     1      37.124 -27.065 -17.051  0.00  0.00    +0.295 HD
ENDBRANCH  17  18
ENDBRANCH  11  17
ENDBRANCH   1  11
TORSDOF 9
ENDMDL
MODEL 2
REMARK VINA RESULT:      -6.7      2.307      4.886
REMARK  Name = 104625
REMARK  9 active torsions:
REMARK  status: ('A' for Active; 'I' for Inactive)
REMARK    1  A    between atoms: C_1  and  C_2
REMARK    2  A    between atoms: C_1  and  CA_11
REMARK    3  A    between atoms: C_2  and  C_4
REMARK    4  A    between atoms: C_2  and  C_8
REMARK    5  A    between atoms: C_4  and  O_5
REMARK    6  A    between atoms: C_8  and  O_9
REMARK    7  A    between atoms: CA_11  and  N_12
REMARK    8  A    between atoms: CA_11  and  C_17
REMARK    9  A    between atoms: C_17  and  O_18
REMARK                            x       y       z     vdW  Elec       q    Type
REMARK                         _______ _______ _______ _____ _____    ______ ____
ROOT
ATOM      1  C   UNL     1      38.560 -24.861 -12.962  0.00  0.00    +0.011 C 
ENDROOT
BRANCH   1   2
ATOM      2  C   UNL     1      38.660 -25.022 -14.491  0.00  0.00    +0.195 C 
BRANCH   2   4
ATOM      3  O   UNL     1      38.031 -27.377 -14.699  0.00  0.00    -0.250 OA
ATOM      4  C   UNL     1      37.809 -26.198 -14.937  0.00  0.00    +0.324 C 
BRANCH   4   5
ATOM      5  O   UNL     1      36.747 -25.773 -15.670  0.00  0.00    -0.480 OA
ATOM      6  H   UNL     1      36.105 -25.210 -15.282  0.00  0.00    +0.295 HD
ENDBRANCH   4   5
ENDBRANCH   2   4
BRANCH   2   8
ATOM      7  O   UNL     1      41.070 -24.686 -14.305  0.00  0.00    -0.250 OA
ATOM      8  C   UNL     1      40.116 -25.173 -14.894  0.00  0.00    +0.324 C 
BRANCH   8   9
ATOM      9  O   UNL     1      40.231 -25.907 -16.029  0.00  0.00    -0.480 OA
ATOM     10  H   UNL     1      39.528 -26.466 -16.299  0.00  0.00    +0.295 HD
ENDBRANCH   8   9
ENDBRANCH   2   8
ENDBRANCH   1   2
BRANCH   1  11
ATOM     11  CA  UNL     1      37.253 -24.218 -12.474  0.00  0.00    +0.037 C 
BRANCH  11  12
ATOM     12  N   UNL     1      37.565 -23.141 -11.530  0.00  0.00    +0.389 N 
ATOM     13  H1  UNL     1      38.577 -23.028 -11.465  0.00  0.00    -0.088 HD
ATOM     14  H2  UNL     1      37.190 -23.375 -10.611  0.00  0.00    -0.088 HD
ATOM     15  H3  UNL     1      37.145 -22.270 -11.857  0.00  0.00    -0.088 HD
ENDBRANCH  11  12
BRANCH  11  17
ATOM     16  OXT UNL     1      35.462 -24.930 -10.984  0.00  0.00    -0.253 OA
ATOM     17  C   UNL     1      36.398 -25.220 -11.720  0.00  0.00    +0.293 C 
BRANCH  17  18
ATOM     18  O   UNL     1      36.799 -26.500 -11.926  0.00  0.00    -0.482 OA
ATOM     19  H   UNL     1      37.530 -26.678 -12.485  0.00  0.00    +0.295 HD
ENDBRANCH  17  18
ENDBRANCH  11  17
ENDBRANCH   1  11
TORSDOF 9
ENDMDL
MODEL 3
REMARK VINA RESULT:      -6.6      1.366      2.750
REMARK  Name = 104625
REMARK  9 active torsions:
REMARK  status: ('A' for Active; 'I' for Inactive)
REMARK    1  A    between atoms: C_1  and  C_2
REMARK    2  A    between atoms: C_1  and  CA_11
REMARK    3  A    between atoms: C_2  and  C_4
REMARK    4  A    between atoms: C_2  and  C_8
REMARK    5  A    between atoms: C_4  and  O_5
REMARK    6  A    between atoms: C_8  and  O_9
REMARK    7  A    between atoms: CA_11  and  N_12
REMARK    8  A    between atoms: CA_11  and  C_17
REMARK    9  A    between atoms: C_17  and  O_18
REMARK                            x       y       z     vdW  Elec       q    Type
REMARK                         _______ _______ _______ _____ _____    ______ ____
ROOT
ATOM      1  C   UNL     1      36.720 -24.509 -13.610  0.00  0.00    +0.011 C 
ENDROOT
BRANCH   1   2
ATOM      2  C   UNL     1      36.929 -24.531 -12.084  0.00  0.00    +0.195 C 
BRANCH   2   4
ATOM      3  O   UNL     1      35.285 -24.984 -10.329  0.00  0.00    -0.250 OA
ATOM      4  C   UNL     1      35.583 -24.444 -11.385  0.00  0.00    +0.324 C 
BRANCH   4   5
ATOM      5  O   UNL     1      34.716 -23.684 -12.104  0.00  0.00    -0.480 OA
ATOM      6  H   UNL     1      34.587 -23.856 -13.016  0.00  0.00    +0.295 HD
ENDBRANCH   4   5
ENDBRANCH   2   4
BRANCH   2   8
ATOM      7  O   UNL     1      39.078 -23.401 -11.842  0.00  0.00    -0.250 OA
ATOM      8  C   UNL     1      37.866 -23.407 -11.680  0.00  0.00    +0.324 C 
BRANCH   8   9
ATOM      9  O   UNL     1      37.185 -22.399 -11.080  0.00  0.00    -0.480 OA
ATOM     10  H   UNL     1      36.874 -21.676 -11.588  0.00  0.00    +0.295 HD
ENDBRANCH   8   9
ENDBRANCH   2   8
ENDBRANCH   1   2
BRANCH   1  11
ATOM     11  CA  UNL     1      37.249 -25.752 -14.342  0.00  0.00    +0.037 C 
BRANCH  11  12
ATOM     12  N   UNL     1      37.078 -26.930 -13.485  0.00  0.00    +0.389 N 
ATOM     13  H1  UNL     1      37.991 -27.261 -13.175  0.00  0.00    -0.088 HD
ATOM     14  H2  UNL     1      36.609 -27.667 -14.010  0.00  0.00    -0.088 HD
ATOM     15  H3  UNL     1      36.513 -26.679 -12.673  0.00  0.00    -0.088 HD
ENDBRANCH  11  12
BRANCH  11  17
ATOM     16  OXT UNL     1      39.524 -26.571 -14.637  0.00  0.00    -0.253 OA
ATOM     17  C   UNL     1      38.737 -25.633 -14.620  0.00  0.00    +0.293 C 
BRANCH  17  18
ATOM     18  O   UNL     1      39.122 -24.348 -14.828  0.00  0.00    -0.482 OA
ATOM     19  H   UNL     1      38.694 -23.651 -14.370  0.00  0.00    +0.295 HD
ENDBRANCH  17  18
ENDBRANCH  11  17
ENDBRANCH   1  11
TORSDOF 9
ENDMDL
MODEL 4
REMARK VINA RESULT:      -6.6      2.041      4.836
REMARK  Name = 104625
REMARK  9 active torsions:
REMARK  status: ('A' for Active; 'I' for Inactive)
REMARK    1  A    between atoms: C_1  and  C_2
REMARK    2  A    between atoms: C_1  and  CA_11
REMARK    3  A    between atoms: C_2  and  C_4
REMARK    4  A    between atoms: C_2  and  C_8
REMARK    5  A    between atoms: C_4  and  O_5
REMARK    6  A    between atoms: C_8  and  O_9
REMARK    7  A    between atoms: CA_11  and  N_12
REMARK    8  A    between atoms: CA_11  and  C_17
REMARK    9  A    between atoms: C_17  and  O_18
REMARK                            x       y       z     vdW  Elec       q    Type
REMARK                         _______ _______ _______ _____ _____    ______ ____
ROOT
ATOM      1  C   UNL     1      38.024 -24.770 -12.391  0.00  0.00    +0.011 C 
ENDROOT
BRANCH   1   2
ATOM      2  C   UNL     1      38.173 -25.067 -13.895  0.00  0.00    +0.195 C 
BRANCH   2   4
ATOM      3  O   UNL     1      36.623 -26.189 -15.420  0.00  0.00    -0.250 OA
ATOM      4  C   UNL     1      37.139 -26.097 -14.315  0.00  0.00    +0.324 C 
BRANCH   4   5
ATOM      5  O   UNL     1      36.831 -26.921 -13.278  0.00  0.00    -0.480 OA
ATOM      6  H   UNL     1      36.346 -27.707 -13.432  0.00  0.00    +0.295 HD
ENDBRANCH   4   5
ENDBRANCH   2   4
BRANCH   2   8
ATOM      7  O   UNL     1      40.597 -24.835 -14.044  0.00  0.00    -0.250 OA
ATOM      8  C   UNL     1      39.593 -25.517 -14.189  0.00  0.00    +0.324 C 
BRANCH   8   9
ATOM      9  O   UNL     1      39.610 -26.786 -14.668  0.00  0.00    -0.480 OA
ATOM     10  H   UNL     1      39.689 -26.937 -15.590  0.00  0.00    +0.295 HD
ENDBRANCH   8   9
ENDBRANCH   2   8
ENDBRANCH   1   2
BRANCH   1  11
ATOM     11  CA  UNL     1      36.924 -23.753 -12.049  0.00  0.00    +0.037 C 
BRANCH  11  12
ATOM     12  N   UNL     1      37.526 -22.590 -11.389  0.00  0.00    +0.389 N 
ATOM     13  H1  UNL     1      38.513 -22.530 -11.639  0.00  0.00    -0.088 HD
ATOM     14  H2  UNL     1      37.437 -22.689 -10.378  0.00  0.00    -0.088 HD
ATOM     15  H3  UNL     1      37.046 -21.742 -11.692  0.00  0.00    -0.088 HD
ENDBRANCH  11  12
BRANCH  11  17
ATOM     16  OXT UNL     1      35.993 -24.229  -9.849  0.00  0.00    -0.253 OA
ATOM     17  C   UNL     1      35.925 -24.337 -11.067  0.00  0.00    +0.293 C 
BRANCH  17  18
ATOM     18  O   UNL     1      34.936 -25.031 -11.687  0.00  0.00    -0.482 OA
ATOM     19  H   UNL     1      34.341 -25.550 -11.182  0.00  0.00    +0.295 HD
ENDBRANCH  17  18
ENDBRANCH  11  17
ENDBRANCH   1  11
TORSDOF 9
ENDMDL
MODEL 5
REMARK VINA RESULT:      -6.5      2.367      4.508
REMARK  Name = 104625
REMARK  9 active torsions:
REMARK  status: ('A' for Active; 'I' for Inactive)
REMARK    1  A    between atoms: C_1  and  C_2
REMARK    2  A    between atoms: C_1  and  CA_11
REMARK    3  A    between atoms: C_2  and  C_4
REMARK    4  A    between atoms: C_2  and  C_8
REMARK    5  A    between atoms: C_4  and  O_5
REMARK    6  A    between atoms: C_8  and  O_9
REMARK    7  A    between atoms: CA_11  and  N_12
REMARK    8  A    between atoms: CA_11  and  C_17
REMARK    9  A    between atoms: C_17  and  O_18
REMARK                            x       y       z     vdW  Elec       q    Type
REMARK                         _______ _______ _______ _____ _____    ______ ____
ROOT
ATOM      1  C   UNL     1      38.264 -25.751 -12.906  0.00  0.00    +0.011 C 
ENDROOT
BRANCH   1   2
ATOM      2  C   UNL     1      38.525 -25.877 -14.418  0.00  0.00    +0.195 C 
BRANCH   2   4
ATOM      3  O   UNL     1      40.668 -24.769 -14.010  0.00  0.00    -0.250 OA
ATOM      4  C   UNL     1      39.951 -25.454 -14.726  0.00  0.00    +0.324 C 
BRANCH   4   5
ATOM      5  O   UNL     1      40.342 -25.926 -15.939  0.00  0.00    -0.480 OA
ATOM      6  H   UNL     1      40.320 -25.366 -16.689  0.00  0.00    +0.295 HD
ENDBRANCH   4   5
ENDBRANCH   2   4
BRANCH   2   8
ATOM      7  O   UNL     1      36.331 -25.374 -15.358  0.00  0.00    -0.250 OA
ATOM      8  C   UNL     1      37.499 -25.061 -15.183  0.00  0.00    +0.324 C 
BRANCH   8   9
ATOM      9  O   UNL     1      38.056 -23.929 -15.684  0.00  0.00    -0.480 OA
ATOM     10  H   UNL     1      37.756 -23.091 -15.392  0.00  0.00    +0.295 HD
ENDBRANCH   8   9
ENDBRANCH   2   8
ENDBRANCH   1   2
BRANCH   1  11
ATOM     11  CA  UNL     1      37.647 -24.411 -12.476  0.00  0.00    +0.037 C 
BRANCH  11  12
ATOM     12  N   UNL     1      38.609 -23.676 -11.650  0.00  0.00    +0.389 N 
ATOM     13  H1  UNL     1      38.155 -23.370 -10.789  0.00  0.00    -0.088 HD
ATOM     14  H2  UNL     1      38.948 -22.863 -12.164  0.00  0.00    -0.088 HD
ATOM     15  H3  UNL     1      39.396 -24.285 -11.422  0.00  0.00    -0.088 HD
ENDBRANCH  11  12
BRANCH  11  17
ATOM     16  OXT UNL     1      36.336 -24.357 -10.423  0.00  0.00    -0.253 OA
ATOM     17  C   UNL     1      36.415 -24.627 -11.615  0.00  0.00    +0.293 C 
BRANCH  17  18
ATOM     18  O   UNL     1      35.391 -25.187 -12.309  0.00  0.00    -0.482 OA
ATOM     19  H   UNL     1      35.540 -25.528 -13.170  0.00  0.00    +0.295 HD
ENDBRANCH  17  18
ENDBRANCH  11  17
ENDBRANCH   1  11
TORSDOF 9
ENDMDL
MODEL 6
REMARK VINA RESULT:      -6.4      1.861      2.375
REMARK  Name = 104625
REMARK  9 active torsions:
REMARK  status: ('A' for Active; 'I' for Inactive)
REMARK    1  A    between atoms: C_1  and  C_2
REMARK    2  A    between atoms: C_1  and  CA_11
REMARK    3  A    between atoms: C_2  and  C_4
REMARK    4  A    between atoms: C_2  and  C_8
REMARK    5  A    between atoms: C_4  and  O_5
REMARK    6  A    between atoms: C_8  and  O_9
REMARK    7  A    between atoms: CA_11  and  N_12
REMARK    8  A    between atoms: CA_11  and  C_17
REMARK    9  A    between atoms: C_17  and  O_18
REMARK                            x       y       z     vdW  Elec       q    Type
REMARK                         _______ _______ _______ _____ _____    ______ ____
ROOT
ATOM      1  C   UNL     1      38.191 -25.344 -12.965  0.00  0.00    +0.011 C 
ENDROOT
BRANCH   1   2
ATOM      2  C   UNL     1      37.227 -24.158 -12.778  0.00  0.00    +0.195 C 
BRANCH   2   4
ATOM      3  O   UNL     1      37.157 -22.441 -11.037  0.00  0.00    -0.250 OA
ATOM      4  C   UNL     1      37.800 -23.192 -11.755  0.00  0.00    +0.324 C 
BRANCH   4   5
ATOM      5  O   UNL     1      39.158 -23.251 -11.747  0.00  0.00    -0.480 OA
ATOM      6  H   UNL     1      39.640 -22.851 -11.050  0.00  0.00    +0.295 HD
ENDBRANCH   4   5
ENDBRANCH   2   4
BRANCH   2   8
ATOM      7  O   UNL     1      34.834 -24.552 -13.046  0.00  0.00    -0.250 OA
ATOM      8  C   UNL     1      35.855 -24.673 -12.384  0.00  0.00    +0.324 C 
BRANCH   8   9
ATOM      9  O   UNL     1      35.893 -25.274 -11.168  0.00  0.00    -0.480 OA
ATOM     10  H   UNL     1      36.593 -25.085 -10.574  0.00  0.00    +0.295 HD
ENDBRANCH   8   9
ENDBRANCH   2   8
ENDBRANCH   1   2
BRANCH   1  11
ATOM     11  CA  UNL     1      38.508 -25.681 -14.431  0.00  0.00    +0.037 C 
BRANCH  11  12
ATOM     12  N   UNL     1      38.302 -27.116 -14.654  0.00  0.00    +0.389 N 
ATOM     13  H1  UNL     1      37.305 -27.307 -14.743  0.00  0.00    -0.088 HD
ATOM     14  H2  UNL     1      38.681 -27.640 -13.865  0.00  0.00    -0.088 HD
ATOM     15  H3  UNL     1      38.781 -27.398 -15.510  0.00  0.00    -0.088 HD
ENDBRANCH  11  12
BRANCH  11  17
ATOM     16  OXT UNL     1      40.729 -24.759 -14.045  0.00  0.00    -0.253 OA
ATOM     17  C   UNL     1      39.963 -25.397 -14.756  0.00  0.00    +0.293 C 
BRANCH  17  18
ATOM     18  O   UNL     1      40.335 -25.913 -15.956  0.00  0.00    -0.482 OA
ATOM     19  H   UNL     1      40.397 -26.842 -16.067  0.00  0.00    +0.295 HD
ENDBRANCH  17  18
ENDBRANCH  11  17
ENDBRANCH   1  11
TORSDOF 9
ENDMDL
MODEL 7
REMARK VINA RESULT:      -6.3      2.188      4.333
REMARK  Name = 104625
REMARK  9 active torsions:
REMARK  status: ('A' for Active; 'I' for Inactive)
REMARK    1  A    between atoms: C_1  and  C_2
REMARK    2  A    between atoms: C_1  and  CA_11
REMARK    3  A    between atoms: C_2  and  C_4
REMARK    4  A    between atoms: C_2  and  C_8
REMARK    5  A    between atoms: C_4  and  O_5
REMARK    6  A    between atoms: C_8  and  O_9
REMARK    7  A    between atoms: CA_11  and  N_12
REMARK    8  A    between atoms: CA_11  and  C_17
REMARK    9  A    between atoms: C_17  and  O_18
REMARK                            x       y       z     vdW  Elec       q    Type
REMARK                         _______ _______ _______ _____ _____    ______ ____
ROOT
ATOM      1  C   UNL     1      36.329 -23.754 -13.364  0.00  0.00    +0.011 C 
ENDROOT
BRANCH   1   2
ATOM      2  C   UNL     1      37.398 -24.641 -14.029  0.00  0.00    +0.195 C 
BRANCH   2   4
ATOM      3  O   UNL     1      39.134 -23.727 -15.490  0.00  0.00    -0.250 OA
ATOM      4  C   UNL     1      37.953 -23.937 -15.256  0.00  0.00    +0.324 C 
BRANCH   4   5
ATOM      5  O   UNL     1      36.947 -23.540 -16.079  0.00  0.00    -0.480 OA
ATOM      6  H   UNL     1      36.093 -23.378 -15.730  0.00  0.00    +0.295 HD
ENDBRANCH   4   5
ENDBRANCH   2   4
BRANCH   2   8
ATOM      7  O   UNL     1      36.410 -26.352 -15.461  0.00  0.00    -0.250 OA
ATOM      8  C   UNL     1      36.802 -25.998 -14.359  0.00  0.00    +0.324 C 
BRANCH   8   9
ATOM      9  O   UNL     1      36.730 -26.778 -13.251  0.00  0.00    -0.480 OA
ATOM     10  H   UNL     1      35.925 -26.841 -12.774  0.00  0.00    +0.295 HD
ENDBRANCH   8   9
ENDBRANCH   2   8
ENDBRANCH   1   2
BRANCH   1  11
ATOM     11  CA  UNL     1      36.631 -23.380 -11.904  0.00  0.00    +0.037 C 
BRANCH  11  12
ATOM     12  N   UNL     1      38.046 -23.643 -11.619  0.00  0.00    +0.389 N 
ATOM     13  H1  UNL     1      38.564 -23.705 -12.495  0.00  0.00    -0.088 HD
ATOM     14  H2  UNL     1      38.132 -24.523 -11.110  0.00  0.00    -0.088 HD
ATOM     15  H3  UNL     1      38.424 -22.884 -11.051  0.00  0.00    -0.088 HD
ENDBRANCH  11  12
BRANCH  11  17
ATOM     16  OXT UNL     1      35.992 -24.270  -9.728  0.00  0.00    -0.253 OA
ATOM     17  C   UNL     1      35.830 -24.239 -10.942  0.00  0.00    +0.293 C 
BRANCH  17  18
ATOM     18  O   UNL     1      34.909 -25.007 -11.579  0.00  0.00    -0.482 OA
ATOM     19  H   UNL     1      35.105 -25.901 -11.782  0.00  0.00    +0.295 HD
ENDBRANCH  17  18
ENDBRANCH  11  17
ENDBRANCH   1  11
TORSDOF 9
ENDMDL
MODEL 8
REMARK VINA RESULT:      -6.2      1.861      4.571
REMARK  Name = 104625
REMARK  9 active torsions:
REMARK  status: ('A' for Active; 'I' for Inactive)
REMARK    1  A    between atoms: C_1  and  C_2
REMARK    2  A    between atoms: C_1  and  CA_11
REMARK    3  A    between atoms: C_2  and  C_4
REMARK    4  A    between atoms: C_2  and  C_8
REMARK    5  A    between atoms: C_4  and  O_5
REMARK    6  A    between atoms: C_8  and  O_9
REMARK    7  A    between atoms: CA_11  and  N_12
REMARK    8  A    between atoms: CA_11  and  C_17
REMARK    9  A    between atoms: C_17  and  O_18
REMARK                            x       y       z     vdW  Elec       q    Type
REMARK                         _______ _______ _______ _____ _____    ______ ____
ROOT
ATOM      1  C   UNL     1      37.940 -24.190 -13.708  0.00  0.00    +0.011 C 
ENDROOT
BRANCH   1   2
ATOM      2  C   UNL     1      38.535 -25.603 -13.566  0.00  0.00    +0.195 C 
BRANCH   2   4
ATOM      3  O   UNL     1      40.706 -24.666 -14.196  0.00  0.00    -0.250 OA
ATOM      4  C   UNL     1      39.945 -25.622 -14.131  0.00  0.00    +0.324 C 
BRANCH   4   5
ATOM      5  O   UNL     1      40.265 -26.862 -14.585  0.00  0.00    -0.480 OA
ATOM      6  H   UNL     1      40.641 -26.966 -15.436  0.00  0.00    +0.295 HD
ENDBRANCH   4   5
ENDBRANCH   2   4
BRANCH   2   8
ATOM      7  O   UNL     1      37.614 -26.866 -15.440  0.00  0.00    -0.250 OA
ATOM      8  C   UNL     1      37.625 -26.611 -14.244  0.00  0.00    +0.324 C 
BRANCH   8   9
ATOM      9  O   UNL     1      36.787 -27.188 -13.346  0.00  0.00    -0.480 OA
ATOM     10  H   UNL     1      36.013 -26.737 -13.071  0.00  0.00    +0.295 HD
ENDBRANCH   8   9
ENDBRANCH   2   8
ENDBRANCH   1   2
BRANCH   1  11
ATOM     11  CA  UNL     1      36.788 -23.884 -12.738  0.00  0.00    +0.037 C 
BRANCH  11  12
ATOM     12  N   UNL     1      35.739 -23.146 -13.448  0.00  0.00    +0.389 N 
ATOM     13  H1  UNL     1      34.834 -23.581 -13.267  0.00  0.00    -0.088 HD
ATOM     14  H2  UNL     1      35.929 -23.163 -14.450  0.00  0.00    -0.088 HD
ATOM     15  H3  UNL     1      35.724 -22.179 -13.122  0.00  0.00    -0.088 HD
ENDBRANCH  11  12
BRANCH  11  17
ATOM     16  OXT UNL     1      36.942 -23.133 -10.426  0.00  0.00    -0.253 OA
ATOM     17  C   UNL     1      37.252 -22.990 -11.602  0.00  0.00    +0.293 C 
BRANCH  17  18
ATOM     18  O   UNL     1      38.044 -21.975 -12.033  0.00  0.00    -0.482 OA
ATOM     19  H   UNL     1      37.964 -21.660 -12.913  0.00  0.00    +0.295 HD
ENDBRANCH  17  18
ENDBRANCH  11  17
ENDBRANCH   1  11
TORSDOF 9
ENDMDL
MODEL 9
REMARK VINA RESULT:      -6.1      2.192      2.845
REMARK  Name = 104625
REMARK  9 active torsions:
REMARK  status: ('A' for Active; 'I' for Inactive)
REMARK    1  A    between atoms: C_1  and  C_2
REMARK    2  A    between atoms: C_1  and  CA_11
REMARK    3  A    between atoms: C_2  and  C_4
REMARK    4  A    between atoms: C_2  and  C_8
REMARK    5  A    between atoms: C_4  and  O_5
REMARK    6  A    between atoms: C_8  and  O_9
REMARK    7  A    between atoms: CA_11  and  N_12
REMARK    8  A    between atoms: CA_11  and  C_17
REMARK    9  A    between atoms: C_17  and  O_18
REMARK                            x       y       z     vdW  Elec       q    Type
REMARK                         _______ _______ _______ _____ _____    ______ ____
ROOT
ATOM      1  C   UNL     1      37.933 -24.558 -13.563  0.00  0.00    +0.011 C 
ENDROOT
BRANCH   1   2
ATOM      2  C   UNL     1      36.545 -24.923 -13.005  0.00  0.00    +0.195 C 
BRANCH   2   4
ATOM      3  O   UNL     1      35.621 -23.152 -14.419  0.00  0.00    -0.250 OA
ATOM      4  C   UNL     1      35.471 -24.191 -13.791  0.00  0.00    +0.324 C 
BRANCH   4   5
ATOM      5  O   UNL     1      34.280 -24.840 -13.697  0.00  0.00    -0.480 OA
ATOM      6  H   UNL     1      33.482 -24.351 -13.660  0.00  0.00    +0.295 HD
ENDBRANCH   4   5
ENDBRANCH   2   4
BRANCH   2   8
ATOM      7  O   UNL     1      37.345 -23.995 -10.894  0.00  0.00    -0.250 OA
ATOM      8  C   UNL     1      36.492 -24.608 -11.520  0.00  0.00    +0.324 C 
BRANCH   8   9
ATOM      9  O   UNL     1      35.373 -25.126 -10.954  0.00  0.00    -0.480 OA
ATOM     10  H   UNL     1      35.066 -25.972 -11.213  0.00  0.00    +0.295 HD
ENDBRANCH   8   9
ENDBRANCH   2   8
ENDBRANCH   1   2
BRANCH   1  11
ATOM     11  CA  UNL     1      38.427 -25.477 -14.691  0.00  0.00    +0.037 C 
BRANCH  11  12
ATOM     12  N   UNL     1      38.148 -26.873 -14.337  0.00  0.00    +0.389 N 
ATOM     13  H1  UNL     1      39.023 -27.352 -14.128  0.00  0.00    -0.088 HD
ATOM     14  H2  UNL     1      37.685 -27.336 -15.119  0.00  0.00    -0.088 HD
ATOM     15  H3  UNL     1      37.540 -26.900 -13.518  0.00  0.00    -0.088 HD
ENDBRANCH  11  12
BRANCH  11  17
ATOM     16  OXT UNL     1      40.691 -24.821 -14.078  0.00  0.00    -0.253 OA
ATOM     17  C   UNL     1      39.930 -25.369 -14.867  0.00  0.00    +0.293 C 
BRANCH  17  18
ATOM     18  O   UNL     1      40.357 -25.931 -16.027  0.00  0.00    -0.482 OA
ATOM     19  H   UNL     1      40.954 -26.654 -16.005  0.00  0.00    +0.295 HD
ENDBRANCH  17  18
ENDBRANCH  11  17
ENDBRANCH   1  11
TORSDOF 9
ENDMDL
