MODEL 1
REMARK VINA RESULT:      -6.6      0.000      0.000
REMARK  Name = 4075
REMARK  4 active torsions:
REMARK  status: ('A' for Active; 'I' for Inactive)
REMARK    1  A    between atoms: C_1  and  C_13
REMARK    2  A    between atoms: C_2  and  N_7
REMARK    3  A    between atoms: C_4  and  O_10
REMARK    4  A    between atoms: C_13  and  O_14
REMARK                            x       y       z     vdW  Elec       q    Type
REMARK                         _______ _______ _______ _____ _____    ______ ____
ROOT
ATOM      1  C   UNL     1      38.909 -25.609 -14.178  0.00  0.00    +0.110 C 
ATOM      2  C   UNL     1      37.714 -24.416 -12.450  0.00  0.00    +0.042 C 
ATOM      3  C   UNL     1      38.917 -24.834 -13.017  0.00  0.00    +0.024 C 
ATOM      4  C   UNL     1      37.698 -25.964 -14.771  0.00  0.00    +0.140 C 
ATOM      5  C   UNL     1      36.503 -24.770 -13.043  0.00  0.00    +0.017 C 
ATOM      6  C   UNL     1      36.494 -25.544 -14.204  0.00  0.00    +0.038 C 
ENDROOT
BRANCH   2   7
ATOM      7  N   UNL     1      37.723 -23.634 -11.276  0.00  0.00    -0.357 N 
ATOM      8  H   UNL     1      37.313 -22.740 -11.277  0.00  0.00    +0.142 HD
ATOM      9  H   UNL     1      38.139 -23.985 -10.454  0.00  0.00    +0.142 HD
ENDBRANCH   2   7
BRANCH   4  10
ATOM     10  O   UNL     1      37.668 -26.717 -15.905  0.00  0.00    -0.505 OA
ATOM     11  H   UNL     1      38.466 -26.921 -16.354  0.00  0.00    +0.292 HD
ENDBRANCH   4  10
BRANCH   1  13
ATOM     12  O   UNL     1      41.097 -26.575 -14.136  0.00  0.00    -0.245 OA
ATOM     13  C   UNL     1      40.177 -26.034 -14.755  0.00  0.00    +0.341 C 
BRANCH  13  14
ATOM     14  O   UNL     1      40.254 -25.772 -16.087  0.00  0.00    -0.477 OA
ATOM     15  H   UNL     1      39.775 -26.298 -16.697  0.00  0.00    +0.295 HD
ENDBRANCH  13  14
ENDBRANCH   1  13
TORSDOF 4
ENDMDL
MODEL 2
REMARK VINA RESULT:      -6.2      8.451      9.153
REMARK  Name = 4075
REMARK  4 active torsions:
REMARK  status: ('A' for Active; 'I' for Inactive)
REMARK    1  A    between atoms: C_1  and  C_13
REMARK    2  A    between atoms: C_2  and  N_7
REMARK    3  A    between atoms: C_4  and  O_10
REMARK    4  A    between atoms: C_13  and  O_14
REMARK                            x       y       z     vdW  Elec       q    Type
REMARK                         _______ _______ _______ _____ _____    ______ ____
ROOT
ATOM      1  C   UNL     1      34.865 -20.982 -19.846  0.00  0.00    +0.110 C 
ATOM      2  C   UNL     1      35.401 -19.182 -21.366  0.00  0.00    +0.042 C 
ATOM      3  C   UNL     1      35.809 -20.251 -20.569  0.00  0.00    +0.024 C 
ATOM      4  C   UNL     1      33.514 -20.645 -19.922  0.00  0.00    +0.140 C 
ATOM      5  C   UNL     1      34.050 -18.844 -21.442  0.00  0.00    +0.017 C 
ATOM      6  C   UNL     1      33.106 -19.576 -20.721  0.00  0.00    +0.038 C 
ENDROOT
BRANCH   2   7
ATOM      7  N   UNL     1      36.355 -18.441 -22.094  0.00  0.00    -0.357 N 
ATOM      8  H   UNL     1      36.204 -17.487 -22.275  0.00  0.00    +0.142 HD
ATOM      9  H   UNL     1      37.174 -18.881 -22.421  0.00  0.00    +0.142 HD
ENDBRANCH   2   7
BRANCH   4  10
ATOM     10  O   UNL     1      32.577 -21.348 -19.227  0.00  0.00    -0.505 OA
ATOM     11  H   UNL     1      31.665 -21.169 -19.357  0.00  0.00    +0.292 HD
ENDBRANCH   4  10
BRANCH   1  13
ATOM     12  O   UNL     1      36.255 -22.061 -18.225  0.00  0.00    -0.245 OA
ATOM     13  C   UNL     1      35.312 -22.096 -19.021  0.00  0.00    +0.341 C 
BRANCH  13  14
ATOM     14  O   UNL     1      34.567 -23.217 -19.214  0.00  0.00    -0.477 OA
ATOM     15  H   UNL     1      33.971 -23.504 -18.550  0.00  0.00    +0.295 HD
ENDBRANCH  13  14
ENDBRANCH   1  13
TORSDOF 4
ENDMDL
MODEL 3
REMARK VINA RESULT:      -6.1      7.979      8.993
REMARK  Name = 4075
REMARK  4 active torsions:
REMARK  status: ('A' for Active; 'I' for Inactive)
REMARK    1  A    between atoms: C_1  and  C_13
REMARK    2  A    between atoms: C_2  and  N_7
REMARK    3  A    between atoms: C_4  and  O_10
REMARK    4  A    between atoms: C_13  and  O_14
REMARK                            x       y       z     vdW  Elec       q    Type
REMARK                         _______ _______ _______ _____ _____    ______ ____
ROOT
ATOM      1  C   UNL     1      34.386 -21.412 -19.589  0.00  0.00    +0.110 C 
ATOM      2  C   UNL     1      34.788 -19.600 -21.136  0.00  0.00    +0.042 C 
ATOM      3  C   UNL     1      33.915 -20.512 -20.546  0.00  0.00    +0.024 C 
ATOM      4  C   UNL     1      35.732 -21.397 -19.222  0.00  0.00    +0.140 C 
ATOM      5  C   UNL     1      36.134 -19.585 -20.769  0.00  0.00    +0.017 C 
ATOM      6  C   UNL     1      36.606 -20.483 -19.812  0.00  0.00    +0.038 C 
ENDROOT
BRANCH   2   7
ATOM      7  N   UNL     1      34.311 -18.693 -22.105  0.00  0.00    -0.357 N 
ATOM      8  H   UNL     1      34.156 -17.752 -21.864  0.00  0.00    +0.142 HD
ATOM      9  H   UNL     1      34.133 -19.002 -23.024  0.00  0.00    +0.142 HD
ENDBRANCH   2   7
BRANCH   4  10
ATOM     10  O   UNL     1      36.212 -22.264 -18.288  0.00  0.00    -0.505 OA
ATOM     11  H   UNL     1      35.617 -22.766 -17.764  0.00  0.00    +0.292 HD
ENDBRANCH   4  10
BRANCH   1  13
ATOM     12  O   UNL     1      32.383 -22.059 -18.453  0.00  0.00    -0.245 OA
ATOM     13  C   UNL     1      33.458 -22.356 -18.984  0.00  0.00    +0.341 C 
BRANCH  13  14
ATOM     14  O   UNL     1      33.898 -23.640 -19.061  0.00  0.00    -0.477 OA
ATOM     15  H   UNL     1      33.882 -24.187 -18.300  0.00  0.00    +0.295 HD
ENDBRANCH  13  14
ENDBRANCH   1  13
TORSDOF 4
ENDMDL
MODEL 4
REMARK VINA RESULT:      -6.1     13.565     14.163
REMARK  Name = 4075
REMARK  4 active torsions:
REMARK  status: ('A' for Active; 'I' for Inactive)
REMARK    1  A    between atoms: C_1  and  C_13
REMARK    2  A    between atoms: C_2  and  N_7
REMARK    3  A    between atoms: C_4  and  O_10
REMARK    4  A    between atoms: C_13  and  O_14
REMARK                            x       y       z     vdW  Elec       q    Type
REMARK                         _______ _______ _______ _____ _____    ______ ____
ROOT
ATOM      1  C   UNL     1      34.325 -15.847 -23.666  0.00  0.00    +0.110 C 
ATOM      2  C   UNL     1      35.132 -17.520 -22.121  0.00  0.00    +0.042 C 
ATOM      3  C   UNL     1      34.661 -16.231 -22.367  0.00  0.00    +0.024 C 
ATOM      4  C   UNL     1      34.459 -16.753 -24.718  0.00  0.00    +0.140 C 
ATOM      5  C   UNL     1      35.266 -18.427 -23.173  0.00  0.00    +0.017 C 
ATOM      6  C   UNL     1      34.929 -18.043 -24.471  0.00  0.00    +0.038 C 
ENDROOT
BRANCH   2   7
ATOM      7  N   UNL     1      35.473 -17.907 -20.808  0.00  0.00    -0.357 N 
ATOM      8  H   UNL     1      36.407 -18.123 -20.586  0.00  0.00    +0.142 HD
ATOM      9  H   UNL     1      34.776 -17.960 -20.114  0.00  0.00    +0.142 HD
ENDBRANCH   2   7
BRANCH   4  10
ATOM     10  O   UNL     1      34.134 -16.399 -25.993  0.00  0.00    -0.505 OA
ATOM     11  H   UNL     1      34.810 -16.185 -26.606  0.00  0.00    +0.292 HD
ENDBRANCH   4  10
BRANCH   1  13
ATOM     12  O   UNL     1      32.977 -14.184 -24.735  0.00  0.00    -0.245 OA
ATOM     13  C   UNL     1      33.833 -14.497 -23.902  0.00  0.00    +0.341 C 
BRANCH  13  14
ATOM     14  O   UNL     1      34.425 -13.580 -23.091  0.00  0.00    -0.477 OA
ATOM     15  H   UNL     1      35.357 -13.576 -22.990  0.00  0.00    +0.295 HD
ENDBRANCH  13  14
ENDBRANCH   1  13
TORSDOF 4
ENDMDL
MODEL 5
REMARK VINA RESULT:      -6.1      8.816      9.624
REMARK  Name = 4075
REMARK  4 active torsions:
REMARK  status: ('A' for Active; 'I' for Inactive)
REMARK    1  A    between atoms: C_1  and  C_13
REMARK    2  A    between atoms: C_2  and  N_7
REMARK    3  A    between atoms: C_4  and  O_10
REMARK    4  A    between atoms: C_13  and  O_14
REMARK                            x       y       z     vdW  Elec       q    Type
REMARK                         _______ _______ _______ _____ _____    ______ ____
ROOT
ATOM      1  C   UNL     1      34.939 -19.696 -20.675  0.00  0.00    +0.110 C 
ATOM      2  C   UNL     1      33.909 -21.532 -19.489  0.00  0.00    +0.042 C 
ATOM      3  C   UNL     1      33.793 -20.378 -20.262  0.00  0.00    +0.024 C 
ATOM      4  C   UNL     1      36.199 -20.171 -20.314  0.00  0.00    +0.140 C 
ATOM      5  C   UNL     1      35.169 -22.007 -19.128  0.00  0.00    +0.017 C 
ATOM      6  C   UNL     1      36.315 -21.327 -19.541  0.00  0.00    +0.038 C 
ENDROOT
BRANCH   2   7
ATOM      7  N   UNL     1      32.750 -22.219 -19.070  0.00  0.00    -0.357 N 
ATOM      8  H   UNL     1      32.830 -23.088 -18.617  0.00  0.00    +0.142 HD
ATOM      9  H   UNL     1      31.860 -21.827 -19.232  0.00  0.00    +0.142 HD
ENDBRANCH   2   7
BRANCH   4  10
ATOM     10  O   UNL     1      37.331 -19.522 -20.708  0.00  0.00    -0.505 OA
ATOM     11  H   UNL     1      37.786 -18.965 -20.106  0.00  0.00    +0.292 HD
ENDBRANCH   4  10
BRANCH   1  13
ATOM     12  O   UNL     1      34.401 -18.462 -22.652  0.00  0.00    -0.245 OA
ATOM     13  C   UNL     1      34.796 -18.493 -21.483  0.00  0.00    +0.341 C 
BRANCH  13  14
ATOM     14  O   UNL     1      35.152 -17.369 -20.807  0.00  0.00    -0.477 OA
ATOM     15  H   UNL     1      34.493 -16.768 -20.518  0.00  0.00    +0.295 HD
ENDBRANCH  13  14
ENDBRANCH   1  13
TORSDOF 4
ENDMDL
MODEL 6
REMARK VINA RESULT:      -6.1      3.504      4.631
REMARK  Name = 4075
REMARK  4 active torsions:
REMARK  status: ('A' for Active; 'I' for Inactive)
REMARK    1  A    between atoms: C_1  and  C_13
REMARK    2  A    between atoms: C_2  and  N_7
REMARK    3  A    between atoms: C_4  and  O_10
REMARK    4  A    between atoms: C_13  and  O_14
REMARK                            x       y       z     vdW  Elec       q    Type
REMARK                         _______ _______ _______ _____ _____    ______ ____
ROOT
ATOM      1  C   UNL     1      36.838 -24.656 -12.298  0.00  0.00    +0.110 C 
ATOM      2  C   UNL     1      37.018 -26.133 -14.202  0.00  0.00    +0.042 C 
ATOM      3  C   UNL     1      36.250 -25.551 -13.194  0.00  0.00    +0.024 C 
ATOM      4  C   UNL     1      38.193 -24.344 -12.413  0.00  0.00    +0.140 C 
ATOM      5  C   UNL     1      38.372 -25.821 -14.316  0.00  0.00    +0.017 C 
ATOM      6  C   UNL     1      38.960 -24.926 -13.422  0.00  0.00    +0.038 C 
ENDROOT
BRANCH   2   7
ATOM      7  N   UNL     1      36.423 -27.039 -15.105  0.00  0.00    -0.357 N 
ATOM      8  H   UNL     1      36.829 -27.191 -15.988  0.00  0.00    +0.142 HD
ATOM      9  H   UNL     1      35.602 -27.520 -14.850  0.00  0.00    +0.142 HD
ENDBRANCH   2   7
BRANCH   4  10
ATOM     10  O   UNL     1      38.785 -23.471 -11.550  0.00  0.00    -0.505 OA
ATOM     11  H   UNL     1      38.615 -22.552 -11.624  0.00  0.00    +0.292 HD
ENDBRANCH   4  10
BRANCH   1  13
ATOM     12  O   UNL     1      36.322 -23.993 -10.058  0.00  0.00    -0.245 OA
ATOM     13  C   UNL     1      36.019 -24.057 -11.254  0.00  0.00    +0.341 C 
BRANCH  13  14
ATOM     14  O   UNL     1      34.850 -23.556 -11.734  0.00  0.00    -0.477 OA
ATOM     15  H   UNL     1      34.827 -23.142 -12.574  0.00  0.00    +0.295 HD
ENDBRANCH  13  14
ENDBRANCH   1  13
TORSDOF 4
ENDMDL
MODEL 7
REMARK VINA RESULT:      -6.1      8.043      9.183
REMARK  Name = 4075
REMARK  4 active torsions:
REMARK  status: ('A' for Active; 'I' for Inactive)
REMARK    1  A    between atoms: C_1  and  C_13
REMARK    2  A    between atoms: C_2  and  N_7
REMARK    3  A    between atoms: C_4  and  O_10
REMARK    4  A    between atoms: C_13  and  O_14
REMARK                            x       y       z     vdW  Elec       q    Type
REMARK                         _______ _______ _______ _____ _____    ______ ____
ROOT
ATOM      1  C   UNL     1      29.850 -23.812 -15.895  0.00  0.00    +0.110 C 
ATOM      2  C   UNL     1      32.196 -23.634 -15.345  0.00  0.00    +0.042 C 
ATOM      3  C   UNL     1      31.115 -23.282 -16.152  0.00  0.00    +0.024 C 
ATOM      4  C   UNL     1      29.667 -24.693 -14.830  0.00  0.00    +0.140 C 
ATOM      5  C   UNL     1      32.013 -24.515 -14.279  0.00  0.00    +0.017 C 
ATOM      6  C   UNL     1      30.748 -25.045 -14.021  0.00  0.00    +0.038 C 
ENDROOT
BRANCH   2   7
ATOM      7  N   UNL     1      33.475 -23.100 -15.607  0.00  0.00    -0.357 N 
ATOM      8  H   UNL     1      33.942 -22.581 -14.914  0.00  0.00    +0.142 HD
ATOM      9  H   UNL     1      33.899 -23.247 -16.484  0.00  0.00    +0.142 HD
ENDBRANCH   2   7
BRANCH   4  10
ATOM     10  O   UNL     1      28.440 -25.220 -14.560  0.00  0.00    -0.505 OA
ATOM     11  H   UNL     1      27.713 -24.652 -14.391  0.00  0.00    +0.292 HD
ENDBRANCH   4  10
BRANCH   1  13
ATOM     12  O   UNL     1      27.924 -24.213 -17.257  0.00  0.00    -0.245 OA
ATOM     13  C   UNL     1      28.734 -23.431 -16.749  0.00  0.00    +0.341 C 
BRANCH  13  14
ATOM     14  O   UNL     1      28.663 -22.087 -16.942  0.00  0.00    -0.477 OA
ATOM     15  H   UNL     1      27.829 -21.659 -16.962  0.00  0.00    +0.295 HD
ENDBRANCH  13  14
ENDBRANCH   1  13
TORSDOF 4
ENDMDL
MODEL 8
REMARK VINA RESULT:      -6.0      3.308      4.389
REMARK  Name = 4075
REMARK  4 active torsions:
REMARK  status: ('A' for Active; 'I' for Inactive)
REMARK    1  A    between atoms: C_1  and  C_13
REMARK    2  A    between atoms: C_2  and  N_7
REMARK    3  A    between atoms: C_4  and  O_10
REMARK    4  A    between atoms: C_13  and  O_14
REMARK                            x       y       z     vdW  Elec       q    Type
REMARK                         _______ _______ _______ _____ _____    ______ ____
ROOT
ATOM      1  C   UNL     1      36.410 -24.675 -12.843  0.00  0.00    +0.110 C 
ATOM      2  C   UNL     1      37.571 -23.986 -14.847  0.00  0.00    +0.042 C 
ATOM      3  C   UNL     1      36.565 -23.781 -13.903  0.00  0.00    +0.024 C 
ATOM      4  C   UNL     1      37.263 -25.772 -12.726  0.00  0.00    +0.140 C 
ATOM      5  C   UNL     1      38.423 -25.084 -14.730  0.00  0.00    +0.017 C 
ATOM      6  C   UNL     1      38.270 -25.977 -13.670  0.00  0.00    +0.038 C 
ENDROOT
BRANCH   2   7
ATOM      7  N   UNL     1      37.725 -23.084 -15.920  0.00  0.00    -0.357 N 
ATOM      8  H   UNL     1      37.175 -22.270 -15.961  0.00  0.00    +0.142 HD
ATOM      9  H   UNL     1      38.385 -23.269 -16.628  0.00  0.00    +0.142 HD
ENDBRANCH   2   7
BRANCH   4  10
ATOM     10  O   UNL     1      37.130 -26.655 -11.697  0.00  0.00    -0.505 OA
ATOM     11  H   UNL     1      36.790 -27.514 -11.857  0.00  0.00    +0.292 HD
ENDBRANCH   4  10
BRANCH   1  13
ATOM     12  O   UNL     1      35.308 -24.932 -10.735  0.00  0.00    -0.245 OA
ATOM     13  C   UNL     1      35.355 -24.442 -11.867  0.00  0.00    +0.341 C 
BRANCH  13  14
ATOM     14  O   UNL     1      34.391 -23.605 -12.335  0.00  0.00    -0.477 OA
ATOM     15  H   UNL     1      33.555 -23.570 -11.912  0.00  0.00    +0.295 HD
ENDBRANCH  13  14
ENDBRANCH   1  13
TORSDOF 4
ENDMDL
MODEL 9
REMARK VINA RESULT:      -6.0      9.150     10.576
REMARK  Name = 4075
REMARK  4 active torsions:
REMARK  status: ('A' for Active; 'I' for Inactive)
REMARK    1  A    between atoms: C_1  and  C_13
REMARK    2  A    between atoms: C_2  and  N_7
REMARK    3  A    between atoms: C_4  and  O_10
REMARK    4  A    between atoms: C_13  and  O_14
REMARK                            x       y       z     vdW  Elec       q    Type
REMARK                         _______ _______ _______ _____ _____    ______ ____
ROOT
ATOM      1  C   UNL     1      28.400 -22.912 -15.925  0.00  0.00    +0.110 C 
ATOM      2  C   UNL     1      30.542 -23.049 -14.814  0.00  0.00    +0.042 C 
ATOM      3  C   UNL     1      29.352 -22.366 -15.063  0.00  0.00    +0.024 C 
ATOM      4  C   UNL     1      28.640 -24.142 -16.537  0.00  0.00    +0.140 C 
ATOM      5  C   UNL     1      30.781 -24.279 -15.426  0.00  0.00    +0.017 C 
ATOM      6  C   UNL     1      29.830 -24.826 -16.288  0.00  0.00    +0.038 C 
ENDROOT
BRANCH   2   7
ATOM      7  N   UNL     1      31.504 -22.494 -13.944  0.00  0.00    -0.357 N 
ATOM      8  H   UNL     1      32.370 -22.943 -13.818  0.00  0.00    +0.142 HD
ATOM      9  H   UNL     1      31.308 -21.657 -13.463  0.00  0.00    +0.142 HD
ENDBRANCH   2   7
BRANCH   4  10
ATOM     10  O   UNL     1      27.723 -24.695 -17.381  0.00  0.00    -0.505 OA
ATOM     11  H   UNL     1      26.901 -24.996 -17.046  0.00  0.00    +0.292 HD
ENDBRANCH   4  10
BRANCH   1  13
ATOM     12  O   UNL     1      26.169 -22.199 -15.438  0.00  0.00    -0.245 OA
ATOM     13  C   UNL     1      27.164 -22.184 -16.171  0.00  0.00    +0.341 C 
BRANCH  13  14
ATOM     14  O   UNL     1      27.207 -21.460 -17.321  0.00  0.00    -0.477 OA
ATOM     15  H   UNL     1      27.783 -21.717 -18.014  0.00  0.00    +0.295 HD
ENDBRANCH  13  14
ENDBRANCH   1  13
TORSDOF 4
ENDMDL
