MODEL 1
REMARK VINA RESULT:     -10.1      0.000      0.000
REMARK  Name = 11427975
REMARK  5 active torsions:
REMARK  status: ('A' for Active; 'I' for Inactive)
REMARK    1  A    between atoms: N_2  and  C_16
REMARK    2  A    between atoms: C_3  and  C_9
REMARK    3  A    between atoms: N_6  and  C_12
REMARK    4  A    between atoms: C_12  and  C_14
REMARK    5  A    between atoms: C_19  and  C_25
REMARK                            x       y       z     vdW  Elec       q    Type
REMARK                         _______ _______ _______ _____ _____    ______ ____
ROOT
ATOM      1  O   UNL     1      32.090 -15.122 -21.645  0.00  0.00    -0.269 OA
ATOM      2  N   UNL     1      33.789 -14.922 -23.258  0.00  0.00    -0.280 N 
ATOM      3  C   UNL     1      32.781 -14.405 -22.411  0.00  0.00    +0.257 C 
ATOM      4  H   UNL     1      34.264 -14.263 -23.814  0.00  0.00    +0.155 HD
ENDROOT
BRANCH   3   9
ATOM      5  S   UNL     1      33.366 -12.036 -23.626  0.00  0.00    -0.047 S 
ATOM      6  N   UNL     1      32.877  -9.424 -23.502  0.00  0.00    -0.315 N 
ATOM      7  N   UNL     1      31.852 -10.837 -21.908  0.00  0.00    -0.223 NA
ATOM      8  C   UNL     1      32.630 -10.643 -22.947  0.00  0.00    +0.160 C 
ATOM      9  C   UNL     1      32.587 -12.995 -22.435  0.00  0.00    +0.105 C 
ATOM     10  C   UNL     1      31.827 -12.187 -21.616  0.00  0.00    +0.112 C 
ATOM     11  H   UNL     1      33.478  -9.385 -24.281  0.00  0.00    +0.149 HD
BRANCH   6  12
ATOM     12  C   UNL     1      32.313  -8.183 -23.015  0.00  0.00    +0.071 C 
ATOM     13  C   UNL     1      31.150  -7.789 -23.921  0.00  0.00    +0.021 C 
BRANCH  12  14
ATOM     14  C   UNL     1      33.385  -7.086 -22.990  0.00  0.00    +0.020 C 
ATOM     15  C   UNL     1      34.750  -7.590 -23.438  0.00  0.00    +0.002 C 
ENDBRANCH  12  14
ENDBRANCH   6  12
ENDBRANCH   3   9
BRANCH   2  16
ATOM     16  C   UNL     1      34.194 -16.252 -23.404  0.00  0.00    +0.047 C 
ATOM     17  C   UNL     1      34.217 -16.859 -24.660  0.00  0.00    -0.008 C 
ATOM     18  C   UNL     1      34.576 -16.974 -22.274  0.00  0.00    +0.019 C 
ATOM     19  C   UNL     1      34.981 -18.304 -22.399  0.00  0.00    +0.055 C 
ATOM     20  C   UNL     1      34.622 -18.188 -24.786  0.00  0.00    -0.003 C 
ATOM     21  C   UNL     1      35.004 -18.910 -23.655  0.00  0.00    +0.004 C 
ATOM     22  C   UNL     1      33.815 -16.108 -25.888  0.00  0.00    +0.032 C 
BRANCH  19  25
ATOM     23  O   UNL     1      36.324 -18.668 -20.513  0.00  0.00    -0.270 OA
ATOM     24  N   UNL     1      34.640 -20.208 -20.924  0.00  0.00    -0.299 N 
ATOM     25  C   UNL     1      35.379 -19.057 -21.221  0.00  0.00    +0.246 C 
ATOM     26  C   UNL     1      34.898 -21.049 -19.777  0.00  0.00    +0.111 C 
ATOM     27  H   UNL     1      33.905 -20.459 -21.529  0.00  0.00    +0.150 HD
ENDBRANCH  19  25
ENDBRANCH   2  16
TORSDOF 5
ENDMDL
MODEL 2
REMARK VINA RESULT:      -9.9      1.324      1.708
REMARK  Name = 11427975
REMARK  5 active torsions:
REMARK  status: ('A' for Active; 'I' for Inactive)
REMARK    1  A    between atoms: N_2  and  C_16
REMARK    2  A    between atoms: C_3  and  C_9
REMARK    3  A    between atoms: N_6  and  C_12
REMARK    4  A    between atoms: C_12  and  C_14
REMARK    5  A    between atoms: C_19  and  C_25
REMARK                            x       y       z     vdW  Elec       q    Type
REMARK                         _______ _______ _______ _____ _____    ______ ____
ROOT
ATOM      1  O   UNL     1      31.980 -14.067 -22.186  0.00  0.00    -0.269 OA
ATOM      2  N   UNL     1      33.809 -14.042 -23.662  0.00  0.00    -0.280 N 
ATOM      3  C   UNL     1      32.792 -13.425 -22.896  0.00  0.00    +0.257 C 
ATOM      4  H   UNL     1      34.387 -13.436 -24.179  0.00  0.00    +0.155 HD
ENDROOT
BRANCH   3   9
ATOM      5  S   UNL     1      31.615 -11.154 -21.955  0.00  0.00    -0.047 S 
ATOM      6  N   UNL     1      31.664  -8.503 -22.178  0.00  0.00    -0.315 N 
ATOM      7  N   UNL     1      33.169  -9.771 -23.488  0.00  0.00    -0.223 NA
ATOM      8  C   UNL     1      32.205  -9.679 -22.602  0.00  0.00    +0.160 C 
ATOM      9  C   UNL     1      32.735 -12.003 -22.938  0.00  0.00    +0.105 C 
ATOM     10  C   UNL     1      33.473 -11.104 -23.680  0.00  0.00    +0.112 C 
ATOM     11  H   UNL     1      30.942  -8.542 -21.508  0.00  0.00    +0.149 HD
BRANCH   6  12
ATOM     12  C   UNL     1      32.081  -7.201 -22.652  0.00  0.00    +0.071 C 
ATOM     13  C   UNL     1      32.006  -6.213 -21.492  0.00  0.00    +0.021 C 
BRANCH  12  14
ATOM     14  C   UNL     1      31.191  -6.750 -23.816  0.00  0.00    +0.020 C 
ATOM     15  C   UNL     1      31.932  -5.874 -24.818  0.00  0.00    +0.002 C 
ENDBRANCH  12  14
ENDBRANCH   6  12
ENDBRANCH   3   9
BRANCH   2  16
ATOM     16  C   UNL     1      34.097 -15.406 -23.774  0.00  0.00    +0.047 C 
ATOM     17  C   UNL     1      33.958 -16.068 -24.994  0.00  0.00    -0.008 C 
ATOM     18  C   UNL     1      34.526 -16.104 -22.646  0.00  0.00    +0.019 C 
ATOM     19  C   UNL     1      34.814 -17.467 -22.737  0.00  0.00    +0.055 C 
ATOM     20  C   UNL     1      34.247 -17.429 -25.085  0.00  0.00    -0.003 C 
ATOM     21  C   UNL     1      34.675 -18.129 -23.957  0.00  0.00    +0.004 C 
ATOM     22  C   UNL     1      33.503 -15.342 -26.219  0.00  0.00    +0.032 C 
BRANCH  19  25
ATOM     23  O   UNL     1      35.625 -17.586 -20.541  0.00  0.00    -0.270 OA
ATOM     24  N   UNL     1      35.236 -19.594 -21.634  0.00  0.00    -0.299 N 
ATOM     25  C   UNL     1      35.261 -18.197 -21.561  0.00  0.00    +0.246 C 
ATOM     26  C   UNL     1      35.626 -20.458 -20.542  0.00  0.00    +0.111 C 
ATOM     27  H   UNL     1      34.936 -20.011 -22.474  0.00  0.00    +0.150 HD
ENDBRANCH  19  25
ENDBRANCH   2  16
TORSDOF 5
ENDMDL
MODEL 3
REMARK VINA RESULT:      -9.8      5.774      9.692
REMARK  Name = 11427975
REMARK  5 active torsions:
REMARK  status: ('A' for Active; 'I' for Inactive)
REMARK    1  A    between atoms: N_2  and  C_16
REMARK    2  A    between atoms: C_3  and  C_9
REMARK    3  A    between atoms: N_6  and  C_12
REMARK    4  A    between atoms: C_12  and  C_14
REMARK    5  A    between atoms: C_19  and  C_25
REMARK                            x       y       z     vdW  Elec       q    Type
REMARK                         _______ _______ _______ _____ _____    ______ ____
ROOT
ATOM      1  O   UNL     1      34.158 -23.609 -19.125  0.00  0.00    -0.269 OA
ATOM      2  N   UNL     1      34.922 -22.133 -17.462  0.00  0.00    -0.280 N 
ATOM      3  C   UNL     1      34.471 -22.447 -18.766  0.00  0.00    +0.257 C 
ATOM      4  H   UNL     1      35.138 -21.187 -17.297  0.00  0.00    +0.155 HD
ENDROOT
BRANCH   3   9
ATOM      5  S   UNL     1      35.758 -20.633 -20.341  0.00  0.00    -0.047 S 
ATOM      6  N   UNL     1      35.328 -18.621 -22.028  0.00  0.00    -0.315 N 
ATOM      7  N   UNL     1      33.459 -19.697 -21.059  0.00  0.00    -0.223 NA
ATOM      8  C   UNL     1      34.754 -19.555 -21.219  0.00  0.00    +0.160 C 
ATOM      9  C   UNL     1      34.353 -21.362 -19.680  0.00  0.00    +0.105 C 
ATOM     10  C   UNL     1      33.230 -20.735 -20.176  0.00  0.00    +0.112 C 
ATOM     11  H   UNL     1      36.311 -18.596 -22.078  0.00  0.00    +0.149 HD
BRANCH   6  12
ATOM     12  C   UNL     1      34.581 -17.662 -22.814  0.00  0.00    +0.071 C 
ATOM     13  C   UNL     1      34.886 -17.901 -24.290  0.00  0.00    +0.021 C 
BRANCH  12  14
ATOM     14  C   UNL     1      34.954 -16.232 -22.401  0.00  0.00    +0.020 C 
ATOM     15  C   UNL     1      34.601 -15.930 -20.951  0.00  0.00    +0.002 C 
ENDBRANCH  12  14
ENDBRANCH   6  12
ENDBRANCH   3   9
BRANCH   2  16
ATOM     16  C   UNL     1      35.099 -22.999 -16.379  0.00  0.00    +0.047 C 
ATOM     17  C   UNL     1      34.000 -23.564 -15.729  0.00  0.00    -0.008 C 
ATOM     18  C   UNL     1      36.391 -23.293 -15.948  0.00  0.00    +0.019 C 
ATOM     19  C   UNL     1      36.587 -24.153 -14.866  0.00  0.00    +0.055 C 
ATOM     20  C   UNL     1      34.196 -24.423 -14.648  0.00  0.00    -0.003 C 
ATOM     21  C   UNL     1      35.489 -24.717 -14.216  0.00  0.00    +0.004 C 
ATOM     22  C   UNL     1      32.604 -23.267 -16.172  0.00  0.00    +0.032 C 
BRANCH  19  25
ATOM     23  O   UNL     1      38.308 -24.133 -13.275  0.00  0.00    -0.270 OA
ATOM     24  N   UNL     1      38.762 -25.149 -15.309  0.00  0.00    -0.299 N 
ATOM     25  C   UNL     1      37.935 -24.460 -14.415  0.00  0.00    +0.246 C 
ATOM     26  C   UNL     1      40.117 -25.546 -15.000  0.00  0.00    +0.111 C 
ATOM     27  H   UNL     1      38.402 -25.376 -16.197  0.00  0.00    +0.150 HD
ENDBRANCH  19  25
ENDBRANCH   2  16
TORSDOF 5
ENDMDL
MODEL 4
REMARK VINA RESULT:      -9.7      6.158     10.395
REMARK  Name = 11427975
REMARK  5 active torsions:
REMARK  status: ('A' for Active; 'I' for Inactive)
REMARK    1  A    between atoms: N_2  and  C_16
REMARK    2  A    between atoms: C_3  and  C_9
REMARK    3  A    between atoms: N_6  and  C_12
REMARK    4  A    between atoms: C_12  and  C_14
REMARK    5  A    between atoms: C_19  and  C_25
REMARK                            x       y       z     vdW  Elec       q    Type
REMARK                         _______ _______ _______ _____ _____    ______ ____
ROOT
ATOM      1  O   UNL     1      33.738 -24.037 -18.660  0.00  0.00    -0.269 OA
ATOM      2  N   UNL     1      33.880 -22.429 -16.951  0.00  0.00    -0.280 N 
ATOM      3  C   UNL     1      33.997 -22.865 -18.292  0.00  0.00    +0.257 C 
ATOM      4  H   UNL     1      34.110 -21.488 -16.782  0.00  0.00    +0.155 HD
ENDROOT
BRANCH   3   9
ATOM      5  S   UNL     1      33.253 -20.844 -19.963  0.00  0.00    -0.047 S 
ATOM      6  N   UNL     1      34.219 -19.096 -21.721  0.00  0.00    -0.315 N 
ATOM      7  N   UNL     1      35.725 -20.586 -20.673  0.00  0.00    -0.223 NA
ATOM      8  C   UNL     1      34.516 -20.113 -20.865  0.00  0.00    +0.160 C 
ATOM      9  C   UNL     1      34.408 -21.891 -19.246  0.00  0.00    +0.105 C 
ATOM     10  C   UNL     1      35.662 -21.606 -19.743  0.00  0.00    +0.112 C 
ATOM     11  H   UNL     1      33.278 -18.814 -21.795  0.00  0.00    +0.149 HD
BRANCH   6  12
ATOM     12  C   UNL     1      35.200 -18.406 -22.532  0.00  0.00    +0.071 C 
ATOM     13  C   UNL     1      35.060 -16.906 -22.292  0.00  0.00    +0.021 C 
BRANCH  12  14
ATOM     14  C   UNL     1      34.999 -18.747 -24.013  0.00  0.00    +0.020 C 
ATOM     15  C   UNL     1      34.680 -17.521 -24.860  0.00  0.00    +0.002 C 
ENDBRANCH  12  14
ENDBRANCH   6  12
ENDBRANCH   3   9
BRANCH   2  16
ATOM     16  C   UNL     1      33.474 -23.170 -15.836  0.00  0.00    +0.047 C 
ATOM     17  C   UNL     1      32.124 -23.435 -15.607  0.00  0.00    -0.008 C 
ATOM     18  C   UNL     1      34.439 -23.642 -14.947  0.00  0.00    +0.019 C 
ATOM     19  C   UNL     1      34.054 -24.380 -13.827  0.00  0.00    +0.055 C 
ATOM     20  C   UNL     1      31.739 -24.173 -14.488  0.00  0.00    -0.003 C 
ATOM     21  C   UNL     1      32.703 -24.646 -13.598  0.00  0.00    +0.004 C 
ATOM     22  C   UNL     1      31.070 -22.942 -16.545  0.00  0.00    +0.032 C 
BRANCH  19  25
ATOM     23  O   UNL     1      34.883 -24.779 -11.671  0.00  0.00    -0.270 OA
ATOM     24  N   UNL     1      36.199 -25.466 -13.453  0.00  0.00    -0.299 N 
ATOM     25  C   UNL     1      35.059 -24.873 -12.899  0.00  0.00    +0.246 C 
ATOM     26  C   UNL     1      37.273 -26.023 -12.663  0.00  0.00    +0.111 C 
ATOM     27  H   UNL     1      36.272 -25.507 -14.434  0.00  0.00    +0.150 HD
ENDBRANCH  19  25
ENDBRANCH   2  16
TORSDOF 5
ENDMDL
MODEL 5
REMARK VINA RESULT:      -9.6      5.845     10.063
REMARK  Name = 11427975
REMARK  5 active torsions:
REMARK  status: ('A' for Active; 'I' for Inactive)
REMARK    1  A    between atoms: N_2  and  C_16
REMARK    2  A    between atoms: C_3  and  C_9
REMARK    3  A    between atoms: N_6  and  C_12
REMARK    4  A    between atoms: C_12  and  C_14
REMARK    5  A    between atoms: C_19  and  C_25
REMARK                            x       y       z     vdW  Elec       q    Type
REMARK                         _______ _______ _______ _____ _____    ______ ____
ROOT
ATOM      1  O   UNL     1      33.819 -23.521 -18.886  0.00  0.00    -0.269 OA
ATOM      2  N   UNL     1      34.928 -22.266 -17.237  0.00  0.00    -0.280 N 
ATOM      3  C   UNL     1      34.474 -22.502 -18.556  0.00  0.00    +0.257 C 
ATOM      4  H   UNL     1      35.431 -21.432 -17.097  0.00  0.00    +0.155 HD
ENDROOT
BRANCH   3   9
ATOM      5  S   UNL     1      33.503 -20.597 -20.246  0.00  0.00    -0.047 S 
ATOM      6  N   UNL     1      34.262 -18.772 -22.028  0.00  0.00    -0.315 N 
ATOM      7  N   UNL     1      35.929 -20.072 -20.969  0.00  0.00    -0.223 NA
ATOM      8  C   UNL     1      34.674 -19.739 -21.162  0.00  0.00    +0.160 C 
ATOM      9  C   UNL     1      34.770 -21.499 -19.522  0.00  0.00    +0.105 C 
ATOM     10  C   UNL     1      35.983 -21.082 -20.028  0.00  0.00    +0.112 C 
ATOM     11  H   UNL     1      33.295 -18.598 -22.100  0.00  0.00    +0.149 HD
BRANCH   6  12
ATOM     12  C   UNL     1      35.157 -17.986 -22.850  0.00  0.00    +0.071 C 
ATOM     13  C   UNL     1      34.926 -16.509 -22.546  0.00  0.00    +0.021 C 
BRANCH  12  14
ATOM     14  C   UNL     1      34.915 -18.286 -24.334  0.00  0.00    +0.020 C 
ATOM     15  C   UNL     1      34.585 -17.036 -25.140  0.00  0.00    +0.002 C 
ENDBRANCH  12  14
ENDBRANCH   6  12
ENDBRANCH   3   9
BRANCH   2  16
ATOM     16  C   UNL     1      34.750 -23.070 -16.107  0.00  0.00    +0.047 C 
ATOM     17  C   UNL     1      35.845 -23.511 -15.364  0.00  0.00    -0.008 C 
ATOM     18  C   UNL     1      33.458 -23.431 -15.727  0.00  0.00    +0.019 C 
ATOM     19  C   UNL     1      33.260 -24.235 -14.604  0.00  0.00    +0.055 C 
ATOM     20  C   UNL     1      35.648 -24.315 -14.241  0.00  0.00    -0.003 C 
ATOM     21  C   UNL     1      34.355 -24.677 -13.861  0.00  0.00    +0.004 C 
ATOM     22  C   UNL     1      37.240 -23.137 -15.747  0.00  0.00    +0.032 C 
BRANCH  19  25
ATOM     23  O   UNL     1      31.694 -25.062 -13.068  0.00  0.00    -0.270 OA
ATOM     24  N   UNL     1      30.897 -24.426 -15.151  0.00  0.00    -0.299 N 
ATOM     25  C   UNL     1      31.913 -24.613 -14.207  0.00  0.00    +0.246 C 
ATOM     26  C   UNL     1      29.507 -24.731 -14.898  0.00  0.00    +0.111 C 
ATOM     27  H   UNL     1      31.142 -24.066 -16.034  0.00  0.00    +0.150 HD
ENDBRANCH  19  25
ENDBRANCH   2  16
TORSDOF 5
ENDMDL
MODEL 6
REMARK VINA RESULT:      -9.1      3.282     10.252
REMARK  Name = 11427975
REMARK  5 active torsions:
REMARK  status: ('A' for Active; 'I' for Inactive)
REMARK    1  A    between atoms: N_2  and  C_16
REMARK    2  A    between atoms: C_3  and  C_9
REMARK    3  A    between atoms: N_6  and  C_12
REMARK    4  A    between atoms: C_12  and  C_14
REMARK    5  A    between atoms: C_19  and  C_25
REMARK                            x       y       z     vdW  Elec       q    Type
REMARK                         _______ _______ _______ _____ _____    ______ ____
ROOT
ATOM      1  O   UNL     1      30.858 -10.548 -22.467  0.00  0.00    -0.269 OA
ATOM      2  N   UNL     1      32.833  -9.330 -22.842  0.00  0.00    -0.280 N 
ATOM      3  C   UNL     1      32.073 -10.522 -22.781  0.00  0.00    +0.257 C 
ATOM      4  H   UNL     1      33.777  -9.433 -23.101  0.00  0.00    +0.155 HD
ENDROOT
BRANCH   3   9
ATOM      5  S   UNL     1      32.382 -13.188 -22.304  0.00  0.00    -0.047 S 
ATOM      6  N   UNL     1      33.750 -15.329 -23.093  0.00  0.00    -0.315 N 
ATOM      7  N   UNL     1      34.177 -13.264 -24.161  0.00  0.00    -0.223 NA
ATOM      8  C   UNL     1      33.542 -13.995 -23.276  0.00  0.00    +0.160 C 
ATOM      9  C   UNL     1      32.748 -11.727 -23.126  0.00  0.00    +0.105 C 
ATOM     10  C   UNL     1      33.720 -11.963 -24.075  0.00  0.00    +0.112 C 
ATOM     11  H   UNL     1      33.222 -15.787 -22.399  0.00  0.00    +0.149 HD
BRANCH   6  12
ATOM     12  C   UNL     1      34.701 -16.112 -23.853  0.00  0.00    +0.071 C 
ATOM     13  C   UNL     1      34.017 -16.609 -25.122  0.00  0.00    +0.021 C 
BRANCH  12  14
ATOM     14  C   UNL     1      35.214 -17.286 -23.010  0.00  0.00    +0.020 C 
ATOM     15  C   UNL     1      35.007 -18.633 -23.691  0.00  0.00    +0.002 C 
ENDBRANCH  12  14
ENDBRANCH   6  12
ENDBRANCH   3   9
BRANCH   2  16
ATOM     16  C   UNL     1      32.409  -8.023 -22.582  0.00  0.00    +0.047 C 
ATOM     17  C   UNL     1      32.217  -7.582 -21.273  0.00  0.00    -0.008 C 
ATOM     18  C   UNL     1      32.177  -7.159 -23.651  0.00  0.00    +0.019 C 
ATOM     19  C   UNL     1      31.751  -5.852 -23.412  0.00  0.00    +0.055 C 
ATOM     20  C   UNL     1      31.790  -6.276 -21.033  0.00  0.00    -0.003 C 
ATOM     21  C   UNL     1      31.558  -5.410 -22.102  0.00  0.00    +0.004 C 
ATOM     22  C   UNL     1      32.460  -8.487 -20.109  0.00  0.00    +0.032 C 
BRANCH  19  25
ATOM     23  O   UNL     1      30.476  -4.256 -24.561  0.00  0.00    -0.270 OA
ATOM     24  N   UNL     1      32.489  -4.890 -25.521  0.00  0.00    -0.299 N 
ATOM     25  C   UNL     1      31.508  -4.949 -24.525  0.00  0.00    +0.246 C 
ATOM     26  C   UNL     1      32.404  -4.026 -26.677  0.00  0.00    +0.111 C 
ATOM     27  H   UNL     1      33.281  -5.468 -25.429  0.00  0.00    +0.150 HD
ENDBRANCH  19  25
ENDBRANCH   2  16
TORSDOF 5
ENDMDL
MODEL 7
REMARK VINA RESULT:      -9.1      3.247      9.885
REMARK  Name = 11427975
REMARK  5 active torsions:
REMARK  status: ('A' for Active; 'I' for Inactive)
REMARK    1  A    between atoms: N_2  and  C_16
REMARK    2  A    between atoms: C_3  and  C_9
REMARK    3  A    between atoms: N_6  and  C_12
REMARK    4  A    between atoms: C_12  and  C_14
REMARK    5  A    between atoms: C_19  and  C_25
REMARK                            x       y       z     vdW  Elec       q    Type
REMARK                         _______ _______ _______ _____ _____    ______ ____
ROOT
ATOM      1  O   UNL     1      36.541 -19.178 -21.323  0.00  0.00    -0.269 OA
ATOM      2  N   UNL     1      34.311 -18.989 -22.044  0.00  0.00    -0.280 N 
ATOM      3  C   UNL     1      35.339 -19.532 -21.238  0.00  0.00    +0.257 C 
ATOM      4  H   UNL     1      33.407 -19.344 -21.887  0.00  0.00    +0.155 HD
ENDROOT
BRANCH   3   9
ATOM      5  S   UNL     1      33.291 -20.735 -19.902  0.00  0.00    -0.047 S 
ATOM      6  N   UNL     1      32.767 -22.602 -18.080  0.00  0.00    -0.315 N 
ATOM      7  N   UNL     1      35.022 -22.208 -18.672  0.00  0.00    -0.223 NA
ATOM      8  C   UNL     1      33.739 -21.958 -18.785  0.00  0.00    +0.160 C 
ATOM      9  C   UNL     1      34.949 -20.507 -20.277  0.00  0.00    +0.105 C 
ATOM     10  C   UNL     1      35.716 -21.376 -19.529  0.00  0.00    +0.112 C 
ATOM     11  H   UNL     1      31.831 -22.339 -18.237  0.00  0.00    +0.149 HD
BRANCH   6  12
ATOM     12  C   UNL     1      33.027 -23.648 -17.113  0.00  0.00    +0.071 C 
ATOM     13  C   UNL     1      31.791 -23.815 -16.234  0.00  0.00    +0.021 C 
BRANCH  12  14
ATOM     14  C   UNL     1      34.258 -23.297 -16.269  0.00  0.00    +0.020 C 
ATOM     15  C   UNL     1      34.143 -23.786 -14.831  0.00  0.00    +0.002 C 
ENDBRANCH  12  14
ENDBRANCH   6  12
ENDBRANCH   3   9
BRANCH   2  16
ATOM     16  C   UNL     1      34.420 -18.008 -23.035  0.00  0.00    +0.047 C 
ATOM     17  C   UNL     1      34.666 -18.358 -24.363  0.00  0.00    -0.008 C 
ATOM     18  C   UNL     1      34.282 -16.667 -22.681  0.00  0.00    +0.019 C 
ATOM     19  C   UNL     1      34.390 -15.673 -23.655  0.00  0.00    +0.055 C 
ATOM     20  C   UNL     1      34.774 -17.365 -25.337  0.00  0.00    -0.003 C 
ATOM     21  C   UNL     1      34.636 -16.023 -24.983  0.00  0.00    +0.004 C 
ATOM     22  C   UNL     1      34.816 -19.788 -24.770  0.00  0.00    +0.032 C 
BRANCH  19  25
ATOM     23  O   UNL     1      34.468 -13.903 -22.121  0.00  0.00    -0.270 OA
ATOM     24  N   UNL     1      33.876 -13.385 -24.303  0.00  0.00    -0.299 N 
ATOM     25  C   UNL     1      34.247 -14.274 -23.287  0.00  0.00    +0.246 C 
ATOM     26  C   UNL     1      33.716 -11.963 -24.100  0.00  0.00    +0.111 C 
ATOM     27  H   UNL     1      33.716 -13.748 -25.204  0.00  0.00    +0.150 HD
ENDBRANCH  19  25
ENDBRANCH   2  16
TORSDOF 5
ENDMDL
MODEL 8
REMARK VINA RESULT:      -9.0      2.373      4.180
REMARK  Name = 11427975
REMARK  5 active torsions:
REMARK  status: ('A' for Active; 'I' for Inactive)
REMARK    1  A    between atoms: N_2  and  C_16
REMARK    2  A    between atoms: C_3  and  C_9
REMARK    3  A    between atoms: N_6  and  C_12
REMARK    4  A    between atoms: C_12  and  C_14
REMARK    5  A    between atoms: C_19  and  C_25
REMARK                            x       y       z     vdW  Elec       q    Type
REMARK                         _______ _______ _______ _____ _____    ______ ____
ROOT
ATOM      1  O   UNL     1      34.598 -18.511 -24.036  0.00  0.00    -0.269 OA
ATOM      2  N   UNL     1      35.014 -17.774 -21.844  0.00  0.00    -0.280 N 
ATOM      3  C   UNL     1      34.658 -17.578 -23.199  0.00  0.00    +0.257 C 
ATOM      4  H   UNL     1      35.027 -16.966 -21.280  0.00  0.00    +0.155 HD
ENDROOT
BRANCH   3   9
ATOM      5  S   UNL     1      34.618 -14.939 -22.515  0.00  0.00    -0.047 S 
ATOM      6  N   UNL     1      33.944 -12.533 -23.428  0.00  0.00    -0.315 N 
ATOM      7  N   UNL     1      33.594 -14.406 -24.827  0.00  0.00    -0.223 NA
ATOM      8  C   UNL     1      33.995 -13.867 -23.700  0.00  0.00    +0.160 C 
ATOM      9  C   UNL     1      34.334 -16.247 -23.588  0.00  0.00    +0.105 C 
ATOM     10  C   UNL     1      33.789 -15.772 -24.763  0.00  0.00    +0.112 C 
ATOM     11  H   UNL     1      34.269 -12.228 -22.550  0.00  0.00    +0.149 HD
BRANCH   6  12
ATOM     12  C   UNL     1      33.439 -11.537 -24.349  0.00  0.00    +0.071 C 
ATOM     13  C   UNL     1      34.549 -11.175 -25.331  0.00  0.00    +0.021 C 
BRANCH  12  14
ATOM     14  C   UNL     1      32.960 -10.298 -23.582  0.00  0.00    +0.020 C 
ATOM     15  C   UNL     1      33.929  -9.128 -23.692  0.00  0.00    +0.002 C 
ENDBRANCH  12  14
ENDBRANCH   6  12
ENDBRANCH   3   9
BRANCH   2  16
ATOM     16  C   UNL     1      35.348 -18.971 -21.204  0.00  0.00    +0.047 C 
ATOM     17  C   UNL     1      36.668 -19.420 -21.173  0.00  0.00    -0.008 C 
ATOM     18  C   UNL     1      34.341 -19.720 -20.595  0.00  0.00    +0.019 C 
ATOM     19  C   UNL     1      34.655 -20.920 -19.955  0.00  0.00    +0.055 C 
ATOM     20  C   UNL     1      36.982 -20.620 -20.533  0.00  0.00    -0.003 C 
ATOM     21  C   UNL     1      35.976 -21.369 -19.924  0.00  0.00    +0.004 C 
ATOM     22  C   UNL     1      37.766 -18.637 -21.816  0.00  0.00    +0.032 C 
BRANCH  19  25
ATOM     23  O   UNL     1      32.453 -21.706 -19.786  0.00  0.00    -0.270 OA
ATOM     24  N   UNL     1      33.966 -22.450 -18.193  0.00  0.00    -0.299 N 
ATOM     25  C   UNL     1      33.606 -21.701 -19.320  0.00  0.00    +0.246 C 
ATOM     26  C   UNL     1      33.044 -23.294 -17.468  0.00  0.00    +0.111 C 
ATOM     27  H   UNL     1      34.898 -22.400 -17.879  0.00  0.00    +0.150 HD
ENDBRANCH  19  25
ENDBRANCH   2  16
TORSDOF 5
ENDMDL
MODEL 9
REMARK VINA RESULT:      -8.9      5.123      9.143
REMARK  Name = 11427975
REMARK  5 active torsions:
REMARK  status: ('A' for Active; 'I' for Inactive)
REMARK    1  A    between atoms: N_2  and  C_16
REMARK    2  A    between atoms: C_3  and  C_9
REMARK    3  A    between atoms: N_6  and  C_12
REMARK    4  A    between atoms: C_12  and  C_14
REMARK    5  A    between atoms: C_19  and  C_25
REMARK                            x       y       z     vdW  Elec       q    Type
REMARK                         _______ _______ _______ _____ _____    ______ ____
ROOT
ATOM      1  O   UNL     1      35.248 -22.839 -19.921  0.00  0.00    -0.269 OA
ATOM      2  N   UNL     1      35.423 -21.521 -17.982  0.00  0.00    -0.280 N 
ATOM      3  C   UNL     1      35.371 -21.711 -19.383  0.00  0.00    +0.257 C 
ATOM      4  H   UNL     1      35.521 -20.591 -17.676  0.00  0.00    +0.155 HD
ENDROOT
BRANCH   3   9
ATOM      5  S   UNL     1      34.013 -19.885 -20.882  0.00  0.00    -0.047 S 
ATOM      6  N   UNL     1      34.350 -17.695 -22.356  0.00  0.00    -0.315 N 
ATOM      7  N   UNL     1      36.251 -18.680 -21.354  0.00  0.00    -0.223 NA
ATOM      8  C   UNL     1      34.961 -18.644 -21.593  0.00  0.00    +0.160 C 
ATOM      9  C   UNL     1      35.439 -20.540 -20.189  0.00  0.00    +0.105 C 
ATOM     10  C   UNL     1      36.524 -19.768 -20.547  0.00  0.00    +0.112 C 
ATOM     11  H   UNL     1      33.374 -17.757 -22.476  0.00  0.00    +0.149 HD
BRANCH   6  12
ATOM     12  C   UNL     1      35.046 -16.604 -23.004  0.00  0.00    +0.071 C 
ATOM     13  C   UNL     1      34.702 -15.308 -22.277  0.00  0.00    +0.021 C 
BRANCH  12  14
ATOM     14  C   UNL     1      34.651 -16.525 -24.483  0.00  0.00    +0.020 C 
ATOM     15  C   UNL     1      34.548 -17.897 -25.137  0.00  0.00    +0.002 C 
ENDBRANCH  12  14
ENDBRANCH   6  12
ENDBRANCH   3   9
BRANCH   2  16
ATOM     16  C   UNL     1      35.350 -22.491 -16.977  0.00  0.00    +0.047 C 
ATOM     17  C   UNL     1      34.156 -23.166 -16.720  0.00  0.00    -0.008 C 
ATOM     18  C   UNL     1      36.489 -22.778 -16.226  0.00  0.00    +0.019 C 
ATOM     19  C   UNL     1      36.435 -23.740 -15.216  0.00  0.00    +0.055 C 
ATOM     20  C   UNL     1      34.102 -24.127 -15.711  0.00  0.00    -0.003 C 
ATOM     21  C   UNL     1      35.241 -24.414 -14.960  0.00  0.00    +0.004 C 
ATOM     22  C   UNL     1      32.921 -22.879 -17.511  0.00  0.00    +0.032 C 
BRANCH  19  25
ATOM     23  O   UNL     1      38.734 -24.134 -14.982  0.00  0.00    -0.270 OA
ATOM     24  N   UNL     1      37.451 -24.189 -13.051  0.00  0.00    -0.299 N 
ATOM     25  C   UNL     1      37.622 -24.039 -14.432  0.00  0.00    +0.246 C 
ATOM     26  C   UNL     1      38.535 -24.465 -12.137  0.00  0.00    +0.111 C 
ATOM     27  H   UNL     1      36.542 -24.101 -12.683  0.00  0.00    +0.150 HD
ENDBRANCH  19  25
ENDBRANCH   2  16
TORSDOF 5
ENDMDL
