MODEL 1
REMARK VINA RESULT:      -8.7      0.000      0.000
REMARK  Name = 5281071
REMARK  6 active torsions:
REMARK  status: ('A' for Active; 'I' for Inactive)
REMARK    1  A    between atoms: C_7  and  C_17
REMARK    2  A    between atoms: C_10  and  C_23
REMARK    3  A    between atoms: C_17  and  C_18
REMARK    4  A    between atoms: C_18  and  N_19
REMARK    5  A    between atoms: C_23  and  C_25
REMARK    6  A    between atoms: C_25  and  O_26
REMARK                            x       y       z     vdW  Elec       q    Type
REMARK                         _______ _______ _______ _____ _____    ______ ____
ROOT
ATOM      1  O   UNL     1      32.689  -6.950 -20.547  0.00  0.00    -0.471 OA
ATOM      2  C   UNL     1      32.828  -7.671 -23.268  0.00  0.00    -0.002 C 
ATOM      3  C   UNL     1      32.374  -8.628 -22.234  0.00  0.00    +0.033 C 
ATOM      4  C   UNL     1      32.250  -6.308 -23.457  0.00  0.00    -0.001 C 
ATOM      5  C   UNL     1      31.738  -5.549 -22.382  0.00  0.00    +0.021 C 
ATOM      6  C   UNL     1      32.332  -8.227 -20.894  0.00  0.00    +0.139 C 
ATOM      7  C   UNL     1      33.911  -8.040 -23.978  0.00  0.00    -0.028 C 
ATOM      8  C   UNL     1      31.665  -6.031 -20.945  0.00  0.00    +0.232 C 
ATOM      9  C   UNL     1      31.999  -9.941 -22.553  0.00  0.00    -0.001 C 
ATOM     10  C   UNL     1      31.619 -10.832 -21.545  0.00  0.00    -0.011 C 
ATOM     11  C   UNL     1      32.164  -5.768 -24.759  0.00  0.00    -0.000 C 
ATOM     12  C   UNL     1      31.978  -9.119 -19.880  0.00  0.00    +0.037 C 
ATOM     13  C   UNL     1      31.179  -4.280 -22.641  0.00  0.00    -0.001 C 
ATOM     14  C   UNL     1      31.615 -10.423 -20.210  0.00  0.00    -0.001 C 
ATOM     15  C   UNL     1      31.618  -4.506 -24.991  0.00  0.00    -0.000 C 
ATOM     16  C   UNL     1      31.128  -3.758 -23.931  0.00  0.00    -0.000 C 
ENDROOT
BRANCH   7  17
ATOM     17  C   UNL     1      34.564  -9.381 -23.860  0.00  0.00    +0.003 C 
BRANCH  17  18
ATOM     18  C   UNL     1      35.446  -9.669 -25.074  0.00  0.00    -0.073 C 
BRANCH  18  19
ATOM     19  N   UNL     1      35.200 -11.018 -25.569  0.00  0.00    +0.384 N 
ATOM     20  C   UNL     1      35.412 -11.082 -27.016  0.00  0.00    -0.101 C 
ATOM     21  C   UNL     1      33.842 -11.450 -25.235  0.00  0.00    -0.101 C 
ATOM     22  H   UNL     1      35.861 -11.650 -25.117  0.00  0.00    -0.080 HD
ENDBRANCH  18  19
ENDBRANCH  17  18
ENDBRANCH   7  17
BRANCH  10  23
ATOM     23  C   UNL     1      31.201 -12.221 -21.894  0.00  0.00    +0.136 C 
BRANCH  23  25
ATOM     24  O   UNL     1      32.648 -13.655 -20.558  0.00  0.00    -0.250 OA
ATOM     25  C   UNL     1      32.281 -13.257 -21.656  0.00  0.00    +0.318 C 
BRANCH  25  26
ATOM     26  O   UNL     1      32.815 -13.709 -22.821  0.00  0.00    -0.480 OA
ATOM     27  H   UNL     1      33.668 -14.097 -22.826  0.00  0.00    +0.295 HD
ENDBRANCH  25  26
ENDBRANCH  23  25
ENDBRANCH  10  23
TORSDOF 6
ENDMDL
MODEL 2
REMARK VINA RESULT:      -8.5     13.971     17.561
REMARK  Name = 5281071
REMARK  6 active torsions:
REMARK  status: ('A' for Active; 'I' for Inactive)
REMARK    1  A    between atoms: C_7  and  C_17
REMARK    2  A    between atoms: C_10  and  C_23
REMARK    3  A    between atoms: C_17  and  C_18
REMARK    4  A    between atoms: C_18  and  N_19
REMARK    5  A    between atoms: C_23  and  C_25
REMARK    6  A    between atoms: C_25  and  O_26
REMARK                            x       y       z     vdW  Elec       q    Type
REMARK                         _______ _______ _______ _____ _____    ______ ____
ROOT
ATOM      1  O   UNL     1      34.403 -23.530 -12.497  0.00  0.00    -0.471 OA
ATOM      2  C   UNL     1      34.697 -23.408 -15.296  0.00  0.00    -0.002 C 
ATOM      3  C   UNL     1      35.611 -24.212 -14.454  0.00  0.00    +0.033 C 
ATOM      4  C   UNL     1      33.210 -23.524 -15.262  0.00  0.00    -0.001 C 
ATOM      5  C   UNL     1      32.506 -23.861 -14.085  0.00  0.00    +0.021 C 
ATOM      6  C   UNL     1      35.432 -24.234 -13.067  0.00  0.00    +0.139 C 
ATOM      7  C   UNL     1      35.274 -22.438 -16.032  0.00  0.00    -0.028 C 
ATOM      8  C   UNL     1      33.158 -24.190 -12.756  0.00  0.00    +0.232 C 
ATOM      9  C   UNL     1      36.673 -24.946 -15.005  0.00  0.00    -0.001 C 
ATOM     10  C   UNL     1      37.544 -25.657 -14.175  0.00  0.00    -0.011 C 
ATOM     11  C   UNL     1      32.474 -23.338 -16.453  0.00  0.00    -0.000 C 
ATOM     12  C   UNL     1      36.313 -24.921 -12.232  0.00  0.00    +0.037 C 
ATOM     13  C   UNL     1      31.101 -23.982 -14.135  0.00  0.00    -0.001 C 
ATOM     14  C   UNL     1      37.368 -25.639 -12.791  0.00  0.00    -0.001 C 
ATOM     15  C   UNL     1      31.084 -23.452 -16.478  0.00  0.00    -0.000 C 
ATOM     16  C   UNL     1      30.395 -23.770 -15.317  0.00  0.00    -0.000 C 
ENDROOT
BRANCH   7  17
ATOM     17  C   UNL     1      36.753 -22.239 -16.131  0.00  0.00    +0.003 C 
BRANCH  17  18
ATOM     18  C   UNL     1      37.188 -22.082 -17.588  0.00  0.00    -0.073 C 
BRANCH  18  19
ATOM     19  N   UNL     1      36.193 -21.320 -18.333  0.00  0.00    +0.384 N 
ATOM     20  C   UNL     1      35.186 -22.213 -18.908  0.00  0.00    -0.101 C 
ATOM     21  C   UNL     1      36.830 -20.529 -19.386  0.00  0.00    -0.101 C 
ATOM     22  H   UNL     1      35.728 -20.683 -17.685  0.00  0.00    -0.080 HD
ENDBRANCH  18  19
ENDBRANCH  17  18
ENDBRANCH   7  17
BRANCH  10  23
ATOM     23  C   UNL     1      38.658 -26.452 -14.769  0.00  0.00    +0.136 C 
BRANCH  23  25
ATOM     24  O   UNL     1      40.429 -24.923 -14.090  0.00  0.00    -0.250 OA
ATOM     25  C   UNL     1      39.944 -25.666 -14.934  0.00  0.00    +0.318 C 
BRANCH  25  26
ATOM     26  O   UNL     1      40.514 -25.877 -16.149  0.00  0.00    -0.480 OA
ATOM     27  H   UNL     1      41.295 -26.391 -16.217  0.00  0.00    +0.295 HD
ENDBRANCH  25  26
ENDBRANCH  23  25
ENDBRANCH  10  23
TORSDOF 6
ENDMDL
MODEL 3
REMARK VINA RESULT:      -8.2     12.949     17.268
REMARK  Name = 5281071
REMARK  6 active torsions:
REMARK  status: ('A' for Active; 'I' for Inactive)
REMARK    1  A    between atoms: C_7  and  C_17
REMARK    2  A    between atoms: C_10  and  C_23
REMARK    3  A    between atoms: C_17  and  C_18
REMARK    4  A    between atoms: C_18  and  N_19
REMARK    5  A    between atoms: C_23  and  C_25
REMARK    6  A    between atoms: C_25  and  O_26
REMARK                            x       y       z     vdW  Elec       q    Type
REMARK                         _______ _______ _______ _____ _____    ______ ____
ROOT
ATOM      1  O   UNL     1      37.609 -22.051 -15.738  0.00  0.00    -0.471 OA
ATOM      2  C   UNL     1      35.442 -23.829 -15.457  0.00  0.00    -0.002 C 
ATOM      3  C   UNL     1      35.585 -22.963 -16.649  0.00  0.00    +0.033 C 
ATOM      4  C   UNL     1      36.509 -24.742 -14.954  0.00  0.00    -0.001 C 
ATOM      5  C   UNL     1      37.883 -24.446 -15.092  0.00  0.00    +0.021 C 
ATOM      6  C   UNL     1      36.673 -22.088 -16.739  0.00  0.00    +0.139 C 
ATOM      7  C   UNL     1      34.314 -23.662 -14.739  0.00  0.00    -0.028 C 
ATOM      8  C   UNL     1      38.433 -23.221 -15.796  0.00  0.00    +0.232 C 
ATOM      9  C   UNL     1      34.648 -22.977 -17.693  0.00  0.00    -0.001 C 
ATOM     10  C   UNL     1      34.791 -22.112 -18.781  0.00  0.00    -0.011 C 
ATOM     11  C   UNL     1      36.145 -25.971 -14.360  0.00  0.00    -0.000 C 
ATOM     12  C   UNL     1      36.807 -21.204 -17.810  0.00  0.00    +0.037 C 
ATOM     13  C   UNL     1      38.837 -25.372 -14.619  0.00  0.00    -0.001 C 
ATOM     14  C   UNL     1      35.865 -21.223 -18.836  0.00  0.00    -0.001 C 
ATOM     15  C   UNL     1      37.104 -26.867 -13.889  0.00  0.00    -0.000 C 
ATOM     16  C   UNL     1      38.452 -26.566 -14.014  0.00  0.00    -0.000 C 
ENDROOT
BRANCH   7  17
ATOM     17  C   UNL     1      33.188 -22.771 -15.157  0.00  0.00    +0.003 C 
BRANCH  17  18
ATOM     18  C   UNL     1      31.876 -23.204 -14.505  0.00  0.00    -0.073 C 
BRANCH  18  19
ATOM     19  N   UNL     1      31.085 -23.996 -15.440  0.00  0.00    +0.384 N 
ATOM     20  C   UNL     1      30.167 -23.139 -16.191  0.00  0.00    -0.101 C 
ATOM     21  C   UNL     1      30.342 -25.039 -14.732  0.00  0.00    -0.101 C 
ATOM     22  H   UNL     1      31.723 -24.443 -16.098  0.00  0.00    -0.080 HD
ENDBRANCH  18  19
ENDBRANCH  17  18
ENDBRANCH   7  17
BRANCH  10  23
ATOM     23  C   UNL     1      33.802 -22.147 -19.898  0.00  0.00    +0.136 C 
BRANCH  23  25
ATOM     24  O   UNL     1      33.676 -20.063 -21.152  0.00  0.00    -0.250 OA
ATOM     25  C   UNL     1      33.248 -20.783 -20.260  0.00  0.00    +0.318 C 
BRANCH  25  26
ATOM     26  O   UNL     1      32.200 -20.436 -19.468  0.00  0.00    -0.480 OA
ATOM     27  H   UNL     1      32.273 -19.700 -18.892  0.00  0.00    +0.295 HD
ENDBRANCH  25  26
ENDBRANCH  23  25
ENDBRANCH  10  23
TORSDOF 6
ENDMDL
MODEL 4
REMARK VINA RESULT:      -7.9     13.248     16.859
REMARK  Name = 5281071
REMARK  6 active torsions:
REMARK  status: ('A' for Active; 'I' for Inactive)
REMARK    1  A    between atoms: C_7  and  C_17
REMARK    2  A    between atoms: C_10  and  C_23
REMARK    3  A    between atoms: C_17  and  C_18
REMARK    4  A    between atoms: C_18  and  N_19
REMARK    5  A    between atoms: C_23  and  C_25
REMARK    6  A    between atoms: C_25  and  O_26
REMARK                            x       y       z     vdW  Elec       q    Type
REMARK                         _______ _______ _______ _____ _____    ______ ____
ROOT
ATOM      1  O   UNL     1      32.641 -25.662 -14.131  0.00  0.00    -0.471 OA
ATOM      2  C   UNL     1      33.668 -23.498 -15.614  0.00  0.00    -0.002 C 
ATOM      3  C   UNL     1      32.213 -23.671 -15.399  0.00  0.00    +0.033 C 
ATOM      4  C   UNL     1      34.678 -23.478 -14.516  0.00  0.00    -0.001 C 
ATOM      5  C   UNL     1      34.517 -24.224 -13.329  0.00  0.00    +0.021 C 
ATOM      6  C   UNL     1      31.750 -24.768 -14.665  0.00  0.00    +0.139 C 
ATOM      7  C   UNL     1      34.077 -23.486 -16.898  0.00  0.00    -0.028 C 
ATOM      8  C   UNL     1      33.305 -25.077 -13.004  0.00  0.00    +0.232 C 
ATOM      9  C   UNL     1      31.274 -22.774 -15.929  0.00  0.00    -0.001 C 
ATOM     10  C   UNL     1      29.906 -22.994 -15.746  0.00  0.00    -0.011 C 
ATOM     11  C   UNL     1      35.816 -22.650 -14.638  0.00  0.00    -0.000 C 
ATOM     12  C   UNL     1      30.385 -25.006 -14.500  0.00  0.00    +0.037 C 
ATOM     13  C   UNL     1      35.500 -24.132 -12.320  0.00  0.00    -0.001 C 
ATOM     14  C   UNL     1      29.463 -24.112 -15.038  0.00  0.00    -0.001 C 
ATOM     15  C   UNL     1      36.781 -22.583 -13.634  0.00  0.00    -0.000 C 
ATOM     16  C   UNL     1      36.626 -23.327 -12.474  0.00  0.00    -0.000 C 
ENDROOT
BRANCH   7  17
ATOM     17  C   UNL     1      33.144 -23.505 -18.067  0.00  0.00    +0.003 C 
BRANCH  17  18
ATOM     18  C   UNL     1      33.839 -22.996 -19.329  0.00  0.00    -0.073 C 
BRANCH  18  19
ATOM     19  N   UNL     1      34.193 -21.589 -19.179  0.00  0.00    +0.384 N 
ATOM     20  C   UNL     1      33.285 -20.744 -19.957  0.00  0.00    -0.101 C 
ATOM     21  C   UNL     1      35.578 -21.358 -19.589  0.00  0.00    -0.101 C 
ATOM     22  H   UNL     1      34.101 -21.341 -18.193  0.00  0.00    -0.080 HD
ENDBRANCH  18  19
ENDBRANCH  17  18
ENDBRANCH   7  17
BRANCH  10  23
ATOM     23  C   UNL     1      28.913 -22.024 -16.294  0.00  0.00    +0.136 C 
BRANCH  23  25
ATOM     24  O   UNL     1      27.516 -23.350 -17.785  0.00  0.00    -0.250 OA
ATOM     25  C   UNL     1      27.630 -22.675 -16.770  0.00  0.00    +0.318 C 
BRANCH  25  26
ATOM     26  O   UNL     1      26.592 -22.422 -15.931  0.00  0.00    -0.480 OA
ATOM     27  H   UNL     1      25.727 -22.707 -16.156  0.00  0.00    +0.295 HD
ENDBRANCH  25  26
ENDBRANCH  23  25
ENDBRANCH  10  23
TORSDOF 6
ENDMDL
MODEL 5
REMARK VINA RESULT:      -7.7      3.423      8.004
REMARK  Name = 5281071
REMARK  6 active torsions:
REMARK  status: ('A' for Active; 'I' for Inactive)
REMARK    1  A    between atoms: C_7  and  C_17
REMARK    2  A    between atoms: C_10  and  C_23
REMARK    3  A    between atoms: C_17  and  C_18
REMARK    4  A    between atoms: C_18  and  N_19
REMARK    5  A    between atoms: C_23  and  C_25
REMARK    6  A    between atoms: C_25  and  O_26
REMARK                            x       y       z     vdW  Elec       q    Type
REMARK                         _______ _______ _______ _____ _____    ______ ____
ROOT
ATOM      1  O   UNL     1      32.105 -15.205 -21.493  0.00  0.00    -0.471 OA
ATOM      2  C   UNL     1      33.803 -15.348 -23.736  0.00  0.00    -0.002 C 
ATOM      3  C   UNL     1      33.318 -14.051 -23.212  0.00  0.00    +0.033 C 
ATOM      4  C   UNL     1      34.489 -16.381 -22.907  0.00  0.00    -0.001 C 
ATOM      5  C   UNL     1      34.195 -16.568 -21.539  0.00  0.00    +0.021 C 
ATOM      6  C   UNL     1      32.468 -14.031 -22.102  0.00  0.00    +0.139 C 
ATOM      7  C   UNL     1      33.477 -15.627 -25.013  0.00  0.00    -0.028 C 
ATOM      8  C   UNL     1      33.209 -15.730 -20.747  0.00  0.00    +0.232 C 
ATOM      9  C   UNL     1      33.672 -12.832 -23.808  0.00  0.00    -0.001 C 
ATOM     10  C   UNL     1      33.158 -11.630 -23.314  0.00  0.00    -0.011 C 
ATOM     11  C   UNL     1      35.504 -17.174 -23.488  0.00  0.00    -0.000 C 
ATOM     12  C   UNL     1      31.931 -12.837 -21.620  0.00  0.00    +0.037 C 
ATOM     13  C   UNL     1      34.906 -17.545 -20.810  0.00  0.00    -0.001 C 
ATOM     14  C   UNL     1      32.284 -11.633 -22.226  0.00  0.00    -0.001 C 
ATOM     15  C   UNL     1      36.186 -18.142 -22.752  0.00  0.00    -0.000 C 
ATOM     16  C   UNL     1      35.885 -18.332 -21.412  0.00  0.00    -0.000 C 
ENDROOT
BRANCH   7  17
ATOM     17  C   UNL     1      32.789 -14.661 -25.924  0.00  0.00    +0.003 C 
BRANCH  17  18
ATOM     18  C   UNL     1      33.632 -14.387 -27.170  0.00  0.00    -0.073 C 
BRANCH  18  19
ATOM     19  N   UNL     1      33.411 -13.024 -27.639  0.00  0.00    +0.384 N 
ATOM     20  C   UNL     1      34.401 -12.114 -27.059  0.00  0.00    -0.101 C 
ATOM     21  C   UNL     1      32.057 -12.578 -27.310  0.00  0.00    -0.101 C 
ATOM     22  H   UNL     1      33.518 -13.014 -28.653  0.00  0.00    -0.080 HD
ENDBRANCH  18  19
ENDBRANCH  17  18
ENDBRANCH   7  17
BRANCH  10  23
ATOM     23  C   UNL     1      33.555 -10.335 -23.940  0.00  0.00    +0.136 C 
BRANCH  23  25
ATOM     24  O   UNL     1      31.609  -8.872 -23.844  0.00  0.00    -0.250 OA
ATOM     25  C   UNL     1      32.736  -9.153 -23.459  0.00  0.00    +0.318 C 
BRANCH  25  26
ATOM     26  O   UNL     1      33.405  -8.418 -22.531  0.00  0.00    -0.480 OA
ATOM     27  H   UNL     1      34.055  -8.824 -21.992  0.00  0.00    +0.295 HD
ENDBRANCH  25  26
ENDBRANCH  23  25
ENDBRANCH  10  23
TORSDOF 6
ENDMDL
MODEL 6
REMARK VINA RESULT:      -7.5      4.185      6.871
REMARK  Name = 5281071
REMARK  6 active torsions:
REMARK  status: ('A' for Active; 'I' for Inactive)
REMARK    1  A    between atoms: C_7  and  C_17
REMARK    2  A    between atoms: C_10  and  C_23
REMARK    3  A    between atoms: C_17  and  C_18
REMARK    4  A    between atoms: C_18  and  N_19
REMARK    5  A    between atoms: C_23  and  C_25
REMARK    6  A    between atoms: C_25  and  O_26
REMARK                            x       y       z     vdW  Elec       q    Type
REMARK                         _______ _______ _______ _____ _____    ______ ____
ROOT
ATOM      1  O   UNL     1      33.169 -13.956 -26.082  0.00  0.00    -0.471 OA
ATOM      2  C   UNL     1      33.564 -12.644 -23.620  0.00  0.00    -0.002 C 
ATOM      3  C   UNL     1      33.821 -14.093 -23.777  0.00  0.00    +0.033 C 
ATOM      4  C   UNL     1      34.153 -11.591 -24.498  0.00  0.00    -0.001 C 
ATOM      5  C   UNL     1      34.440 -11.819 -25.862  0.00  0.00    +0.021 C 
ATOM      6  C   UNL     1      33.600 -14.703 -25.016  0.00  0.00    +0.139 C 
ATOM      7  C   UNL     1      32.642 -12.304 -22.699  0.00  0.00    -0.028 C 
ATOM      8  C   UNL     1      34.241 -13.143 -26.574  0.00  0.00    +0.232 C 
ATOM      9  C   UNL     1      34.264 -14.887 -22.709  0.00  0.00    -0.001 C 
ATOM     10  C   UNL     1      34.452 -16.261 -22.881  0.00  0.00    -0.011 C 
ATOM     11  C   UNL     1      34.483 -10.333 -23.946  0.00  0.00    -0.000 C 
ATOM     12  C   UNL     1      33.761 -16.078 -25.188  0.00  0.00    +0.037 C 
ATOM     13  C   UNL     1      35.026 -10.785 -26.623  0.00  0.00    -0.001 C 
ATOM     14  C   UNL     1      34.194 -16.857 -24.117  0.00  0.00    -0.001 C 
ATOM     15  C   UNL     1      35.050  -9.322 -24.719  0.00  0.00    -0.000 C 
ATOM     16  C   UNL     1      35.319  -9.545 -26.061  0.00  0.00    -0.000 C 
ENDROOT
BRANCH   7  17
ATOM     17  C   UNL     1      31.993 -13.284 -21.773  0.00  0.00    +0.003 C 
BRANCH  17  18
ATOM     18  C   UNL     1      31.948 -12.741 -20.345  0.00  0.00    -0.073 C 
BRANCH  18  19
ATOM     19  N   UNL     1      31.568 -11.333 -20.352  0.00  0.00    +0.384 N 
ATOM     20  C   UNL     1      31.569 -10.793 -18.992  0.00  0.00    -0.101 C 
ATOM     21  C   UNL     1      30.252 -11.157 -20.968  0.00  0.00    -0.101 C 
ATOM     22  H   UNL     1      32.255 -10.820 -20.905  0.00  0.00    -0.080 HD
ENDBRANCH  18  19
ENDBRANCH  17  18
ENDBRANCH   7  17
BRANCH  10  23
ATOM     23  C   UNL     1      34.944 -17.096 -21.747  0.00  0.00    +0.136 C 
BRANCH  23  25
ATOM     24  O   UNL     1      34.952 -19.486 -22.219  0.00  0.00    -0.250 OA
ATOM     25  C   UNL     1      35.547 -18.417 -22.183  0.00  0.00    +0.318 C 
BRANCH  25  26
ATOM     26  O   UNL     1      36.852 -18.286 -22.538  0.00  0.00    -0.480 OA
ATOM     27  H   UNL     1      37.242 -18.903 -23.125  0.00  0.00    +0.295 HD
ENDBRANCH  25  26
ENDBRANCH  23  25
ENDBRANCH  10  23
TORSDOF 6
ENDMDL
MODEL 7
REMARK VINA RESULT:      -7.3      5.769     10.756
REMARK  Name = 5281071
REMARK  6 active torsions:
REMARK  status: ('A' for Active; 'I' for Inactive)
REMARK    1  A    between atoms: C_7  and  C_17
REMARK    2  A    between atoms: C_10  and  C_23
REMARK    3  A    between atoms: C_17  and  C_18
REMARK    4  A    between atoms: C_18  and  N_19
REMARK    5  A    between atoms: C_23  and  C_25
REMARK    6  A    between atoms: C_25  and  O_26
REMARK                            x       y       z     vdW  Elec       q    Type
REMARK                         _______ _______ _______ _____ _____    ______ ____
ROOT
ATOM      1  O   UNL     1      32.423 -19.401 -21.167  0.00  0.00    -0.471 OA
ATOM      2  C   UNL     1      35.086 -18.525 -21.447  0.00  0.00    -0.002 C 
ATOM      3  C   UNL     1      33.989 -17.584 -21.125  0.00  0.00    +0.033 C 
ATOM      4  C   UNL     1      35.371 -19.771 -20.678  0.00  0.00    -0.001 C 
ATOM      5  C   UNL     1      34.353 -20.517 -20.045  0.00  0.00    +0.021 C 
ATOM      6  C   UNL     1      32.681 -18.064 -21.006  0.00  0.00    +0.139 C 
ATOM      7  C   UNL     1      35.765 -18.272 -22.583  0.00  0.00    -0.028 C 
ATOM      8  C   UNL     1      32.887 -20.128 -20.023  0.00  0.00    +0.232 C 
ATOM      9  C   UNL     1      34.218 -16.211 -20.952  0.00  0.00    -0.001 C 
ATOM     10  C   UNL     1      33.152 -15.345 -20.694  0.00  0.00    -0.011 C 
ATOM     11  C   UNL     1      36.708 -20.203 -20.530  0.00  0.00    -0.000 C 
ATOM     12  C   UNL     1      31.609 -17.201 -20.774  0.00  0.00    +0.037 C 
ATOM     13  C   UNL     1      34.701 -21.669 -19.308  0.00  0.00    -0.001 C 
ATOM     14  C   UNL     1      31.849 -15.838 -20.612  0.00  0.00    -0.001 C 
ATOM     15  C   UNL     1      37.029 -21.351 -19.808  0.00  0.00    -0.000 C 
ATOM     16  C   UNL     1      36.025 -22.088 -19.198  0.00  0.00    -0.000 C 
ENDROOT
BRANCH   7  17
ATOM     17  C   UNL     1      35.552 -17.054 -23.424  0.00  0.00    +0.003 C 
BRANCH  17  18
ATOM     18  C   UNL     1      34.599 -17.348 -24.582  0.00  0.00    -0.073 C 
BRANCH  18  19
ATOM     19  N   UNL     1      34.227 -16.110 -25.256  0.00  0.00    +0.384 N 
ATOM     20  C   UNL     1      33.906 -15.068 -24.279  0.00  0.00    -0.101 C 
ATOM     21  C   UNL     1      33.093 -16.331 -26.155  0.00  0.00    -0.101 C 
ATOM     22  H   UNL     1      35.024 -15.798 -25.812  0.00  0.00    -0.080 HD
ENDBRANCH  18  19
ENDBRANCH  17  18
ENDBRANCH   7  17
BRANCH  10  23
ATOM     23  C   UNL     1      33.405 -13.888 -20.490  0.00  0.00    +0.136 C 
BRANCH  23  25
ATOM     24  O   UNL     1      31.999 -12.974 -22.257  0.00  0.00    -0.250 OA
ATOM     25  C   UNL     1      32.329 -12.998 -21.078  0.00  0.00    +0.318 C 
BRANCH  25  26
ATOM     26  O   UNL     1      31.755 -12.206 -20.134  0.00  0.00    -0.480 OA
ATOM     27  H   UNL     1      30.872 -11.912 -20.244  0.00  0.00    +0.295 HD
ENDBRANCH  25  26
ENDBRANCH  23  25
ENDBRANCH  10  23
TORSDOF 6
ENDMDL
MODEL 8
REMARK VINA RESULT:      -7.2      3.773      7.605
REMARK  Name = 5281071
REMARK  6 active torsions:
REMARK  status: ('A' for Active; 'I' for Inactive)
REMARK    1  A    between atoms: C_7  and  C_17
REMARK    2  A    between atoms: C_10  and  C_23
REMARK    3  A    between atoms: C_17  and  C_18
REMARK    4  A    between atoms: C_18  and  N_19
REMARK    5  A    between atoms: C_23  and  C_25
REMARK    6  A    between atoms: C_25  and  O_26
REMARK                            x       y       z     vdW  Elec       q    Type
REMARK                         _______ _______ _______ _____ _____    ______ ____
ROOT
ATOM      1  O   UNL     1      35.062  -7.606 -23.960  0.00  0.00    -0.471 OA
ATOM      2  C   UNL     1      32.380  -7.025 -23.322  0.00  0.00    -0.002 C 
ATOM      3  C   UNL     1      33.051  -6.407 -24.488  0.00  0.00    +0.033 C 
ATOM      4  C   UNL     1      32.325  -8.494 -23.071  0.00  0.00    -0.001 C 
ATOM      5  C   UNL     1      33.363  -9.367 -23.465  0.00  0.00    +0.021 C 
ATOM      6  C   UNL     1      34.388  -6.719 -24.759  0.00  0.00    +0.139 C 
ATOM      7  C   UNL     1      31.910  -6.171 -22.392  0.00  0.00    -0.028 C 
ATOM      8  C   UNL     1      34.608  -8.939 -24.220  0.00  0.00    +0.232 C 
ATOM      9  C   UNL     1      32.392  -5.498 -25.328  0.00  0.00    -0.001 C 
ATOM     10  C   UNL     1      33.071  -4.899 -26.392  0.00  0.00    -0.011 C 
ATOM     11  C   UNL     1      31.179  -9.050 -22.460  0.00  0.00    -0.000 C 
ATOM     12  C   UNL     1      35.079  -6.105 -25.804  0.00  0.00    +0.037 C 
ATOM     13  C   UNL     1      33.229 -10.750 -23.221  0.00  0.00    -0.001 C 
ATOM     14  C   UNL     1      34.415  -5.197 -26.626  0.00  0.00    -0.001 C 
ATOM     15  C   UNL     1      31.072 -10.419 -22.218  0.00  0.00    -0.000 C 
ATOM     16  C   UNL     1      32.099 -11.271 -22.595  0.00  0.00    -0.000 C 
ENDROOT
BRANCH   7  17
ATOM     17  C   UNL     1      31.920  -4.684 -22.550  0.00  0.00    +0.003 C 
BRANCH  17  18
ATOM     18  C   UNL     1      30.502  -4.117 -22.491  0.00  0.00    -0.073 C 
BRANCH  18  19
ATOM     19  N   UNL     1      30.432  -2.855 -23.218  0.00  0.00    +0.384 N 
ATOM     20  C   UNL     1      31.759  -2.462 -23.696  0.00  0.00    -0.101 C 
ATOM     21  C   UNL     1      29.864  -1.803 -22.374  0.00  0.00    -0.101 C 
ATOM     22  H   UNL     1      29.822  -2.985 -24.026  0.00  0.00    -0.080 HD
ENDBRANCH  18  19
ENDBRANCH  17  18
ENDBRANCH   7  17
BRANCH  10  23
ATOM     23  C   UNL     1      32.357  -3.948 -27.294  0.00  0.00    +0.136 C 
BRANCH  23  25
ATOM     24  O   UNL     1      32.587  -4.929 -29.512  0.00  0.00    -0.250 OA
ATOM     25  C   UNL     1      32.824  -4.014 -28.735  0.00  0.00    +0.318 C 
BRANCH  25  26
ATOM     26  O   UNL     1      33.553  -2.921 -29.081  0.00  0.00    -0.480 OA
ATOM     27  H   UNL     1      33.580  -2.640 -29.975  0.00  0.00    +0.295 HD
ENDBRANCH  25  26
ENDBRANCH  23  25
ENDBRANCH  10  23
TORSDOF 6
ENDMDL
MODEL 9
REMARK VINA RESULT:      -7.2      6.631     11.779
REMARK  Name = 5281071
REMARK  6 active torsions:
REMARK  status: ('A' for Active; 'I' for Inactive)
REMARK    1  A    between atoms: C_7  and  C_17
REMARK    2  A    between atoms: C_10  and  C_23
REMARK    3  A    between atoms: C_17  and  C_18
REMARK    4  A    between atoms: C_18  and  N_19
REMARK    5  A    between atoms: C_23  and  C_25
REMARK    6  A    between atoms: C_25  and  O_26
REMARK                            x       y       z     vdW  Elec       q    Type
REMARK                         _______ _______ _______ _____ _____    ______ ____
ROOT
ATOM      1  O   UNL     1      36.277 -18.753 -20.313  0.00  0.00    -0.471 OA
ATOM      2  C   UNL     1      33.552 -19.352 -20.712  0.00  0.00    -0.002 C 
ATOM      3  C   UNL     1      34.388 -18.781 -21.793  0.00  0.00    +0.033 C 
ATOM      4  C   UNL     1      33.909 -20.576 -19.937  0.00  0.00    -0.001 C 
ATOM      5  C   UNL     1      35.248 -20.932 -19.662  0.00  0.00    +0.021 C 
ATOM      6  C   UNL     1      35.734 -18.491 -21.544  0.00  0.00    +0.139 C 
ATOM      7  C   UNL     1      32.477 -18.624 -20.352  0.00  0.00    -0.028 C 
ATOM      8  C   UNL     1      36.461 -20.164 -20.151  0.00  0.00    +0.232 C 
ATOM      9  C   UNL     1      33.866 -18.503 -23.065  0.00  0.00    -0.001 C 
ATOM     10  C   UNL     1      34.672 -17.922 -24.047  0.00  0.00    -0.011 C 
ATOM     11  C   UNL     1      32.882 -21.441 -19.499  0.00  0.00    -0.000 C 
ATOM     12  C   UNL     1      36.537 -17.887 -22.512  0.00  0.00    +0.037 C 
ATOM     13  C   UNL     1      35.510 -22.121 -18.949  0.00  0.00    -0.001 C 
ATOM     14  C   UNL     1      36.004 -17.609 -23.769  0.00  0.00    -0.001 C 
ATOM     15  C   UNL     1      33.164 -22.606 -18.786  0.00  0.00    -0.000 C 
ATOM     16  C   UNL     1      34.479 -22.946 -18.507  0.00  0.00    -0.000 C 
ENDROOT
BRANCH   7  17
ATOM     17  C   UNL     1      32.038 -17.383 -21.062  0.00  0.00    +0.003 C 
BRANCH  17  18
ATOM     18  C   UNL     1      32.596 -16.135 -20.379  0.00  0.00    -0.073 C 
BRANCH  18  19
ATOM     19  N   UNL     1      33.209 -15.251 -21.364  0.00  0.00    +0.384 N 
ATOM     20  C   UNL     1      34.605 -14.984 -21.017  0.00  0.00    -0.101 C 
ATOM     21  C   UNL     1      32.462 -13.997 -21.468  0.00  0.00    -0.101 C 
ATOM     22  H   UNL     1      33.184 -15.719 -22.271  0.00  0.00    -0.080 HD
ENDBRANCH  18  19
ENDBRANCH  17  18
ENDBRANCH   7  17
BRANCH  10  23
ATOM     23  C   UNL     1      34.116 -17.648 -25.404  0.00  0.00    +0.136 C 
BRANCH  23  25
ATOM     24  O   UNL     1      33.450 -15.685 -26.684  0.00  0.00    -0.250 OA
ATOM     25  C   UNL     1      33.681 -16.210 -25.602  0.00  0.00    +0.318 C 
BRANCH  25  26
ATOM     26  O   UNL     1      33.575 -15.546 -24.422  0.00  0.00    -0.480 OA
ATOM     27  H   UNL     1      33.662 -16.011 -23.613  0.00  0.00    +0.295 HD
ENDBRANCH  25  26
ENDBRANCH  23  25
ENDBRANCH  10  23
TORSDOF 6
ENDMDL
