MODEL 1
REMARK VINA RESULT:      -6.9      0.000      0.000
REMARK  Name = 4688
REMARK  4 active torsions:
REMARK  status: ('A' for Active; 'I' for Inactive)
REMARK    1  A    between atoms: C_1  and  C_2
REMARK    2  A    between atoms: C_1  and  N_8
REMARK    3  A    between atoms: N_8  and  C_11
REMARK    4  A    between atoms: C_11  and  C_12
REMARK                            x       y       z     vdW  Elec       q    Type
REMARK                         _______ _______ _______ _____ _____    ______ ____
ROOT
ATOM      1  C   UNL     1      35.703 -18.472 -21.936  0.00  0.00    -0.049 C 
ENDROOT
BRANCH   1   2
ATOM      2  C   UNL     1      34.990 -19.498 -21.096  0.00  0.00    -0.043 C 
ATOM      3  C   UNL     1      35.726 -20.465 -20.426  0.00  0.00    -0.006 C 
ATOM      4  C   UNL     1      33.605 -19.462 -21.002  0.00  0.00    -0.006 C 
ATOM      5  C   UNL     1      35.066 -21.416 -19.648  0.00  0.00    -0.000 C 
ATOM      6  C   UNL     1      32.944 -20.413 -20.224  0.00  0.00    -0.000 C 
ATOM      7  C   UNL     1      33.675 -21.389 -19.547  0.00  0.00    -0.000 C 
ENDBRANCH   1   2
BRANCH   1   8
ATOM      8  N   UNL     1      34.794 -17.802 -22.864  0.00  0.00    +0.396 N 
ATOM      9  C   UNL     1      34.959 -18.334 -24.216  0.00  0.00    -0.099 C 
ATOM     10  H   UNL     1      33.836 -17.977 -22.562  0.00  0.00    -0.078 HD
BRANCH   8  11
ATOM     11  C   UNL     1      35.024 -16.357 -22.852  0.00  0.00    +0.003 C 
BRANCH  11  12
ATOM     12  C   UNL     1      34.658 -15.780 -21.554  0.00  0.00    -0.101 C 
ATOM     13  C   UNL     1      34.358 -15.302 -20.494  0.00  0.00    -0.016 C 
ENDBRANCH  11  12
ENDBRANCH   8  11
ENDBRANCH   1   8
TORSDOF 4
ENDMDL
MODEL 2
REMARK VINA RESULT:      -6.9      0.014      1.395
REMARK  Name = 4688
REMARK  4 active torsions:
REMARK  status: ('A' for Active; 'I' for Inactive)
REMARK    1  A    between atoms: C_1  and  C_2
REMARK    2  A    between atoms: C_1  and  N_8
REMARK    3  A    between atoms: N_8  and  C_11
REMARK    4  A    between atoms: C_11  and  C_12
REMARK                            x       y       z     vdW  Elec       q    Type
REMARK                         _______ _______ _______ _____ _____    ______ ____
ROOT
ATOM      1  C   UNL     1      35.701 -18.465 -21.919  0.00  0.00    -0.049 C 
ENDROOT
BRANCH   1   2
ATOM      2  C   UNL     1      34.992 -19.495 -21.081  0.00  0.00    -0.043 C 
ATOM      3  C   UNL     1      33.607 -19.464 -20.986  0.00  0.00    -0.006 C 
ATOM      4  C   UNL     1      35.732 -20.462 -20.415  0.00  0.00    -0.006 C 
ATOM      5  C   UNL     1      32.950 -20.418 -20.210  0.00  0.00    -0.000 C 
ATOM      6  C   UNL     1      35.075 -21.417 -19.639  0.00  0.00    -0.000 C 
ATOM      7  C   UNL     1      33.684 -21.394 -19.536  0.00  0.00    -0.000 C 
ENDBRANCH   1   2
BRANCH   1   8
ATOM      8  N   UNL     1      34.792 -17.803 -22.854  0.00  0.00    +0.396 N 
ATOM      9  C   UNL     1      34.960 -18.347 -24.202  0.00  0.00    -0.099 C 
ATOM     10  H   UNL     1      33.834 -17.978 -22.552  0.00  0.00    -0.078 HD
BRANCH   8  11
ATOM     11  C   UNL     1      35.020 -16.358 -22.854  0.00  0.00    +0.003 C 
BRANCH  11  12
ATOM     12  C   UNL     1      34.655 -15.772 -21.560  0.00  0.00    -0.101 C 
ATOM     13  C   UNL     1      34.354 -15.297 -20.499  0.00  0.00    -0.016 C 
ENDBRANCH  11  12
ENDBRANCH   8  11
ENDBRANCH   1   8
TORSDOF 4
ENDMDL
MODEL 3
REMARK VINA RESULT:      -6.6      0.939      2.797
REMARK  Name = 4688
REMARK  4 active torsions:
REMARK  status: ('A' for Active; 'I' for Inactive)
REMARK    1  A    between atoms: C_1  and  C_2
REMARK    2  A    between atoms: C_1  and  N_8
REMARK    3  A    between atoms: N_8  and  C_11
REMARK    4  A    between atoms: C_11  and  C_12
REMARK                            x       y       z     vdW  Elec       q    Type
REMARK                         _______ _______ _______ _____ _____    ______ ____
ROOT
ATOM      1  C   UNL     1      33.825 -18.519 -21.462  0.00  0.00    -0.049 C 
ENDROOT
BRANCH   1   2
ATOM      2  C   UNL     1      34.205 -19.764 -20.706  0.00  0.00    -0.043 C 
ATOM      3  C   UNL     1      33.214 -20.537 -20.118  0.00  0.00    -0.006 C 
ATOM      4  C   UNL     1      35.543 -20.123 -20.608  0.00  0.00    -0.006 C 
ATOM      5  C   UNL     1      33.566 -21.690 -19.418  0.00  0.00    -0.000 C 
ATOM      6  C   UNL     1      35.895 -21.276 -19.908  0.00  0.00    -0.000 C 
ATOM      7  C   UNL     1      34.907 -22.060 -19.313  0.00  0.00    -0.000 C 
ENDBRANCH   1   2
BRANCH   1   8
ATOM      8  N   UNL     1      34.972 -17.636 -21.668  0.00  0.00    +0.396 N 
ATOM      9  C   UNL     1      34.855 -16.441 -20.832  0.00  0.00    -0.099 C 
ATOM     10  H   UNL     1      35.819 -18.136 -21.399  0.00  0.00    -0.078 HD
BRANCH   8  11
ATOM     11  C   UNL     1      35.084 -17.264 -23.078  0.00  0.00    +0.003 C 
BRANCH  11  12
ATOM     12  C   UNL     1      34.937 -18.439 -23.942  0.00  0.00    -0.101 C 
ATOM     13  C   UNL     1      34.812 -19.399 -24.654  0.00  0.00    -0.016 C 
ENDBRANCH  11  12
ENDBRANCH   8  11
ENDBRANCH   1   8
TORSDOF 4
ENDMDL
MODEL 4
REMARK VINA RESULT:      -6.2      1.463      4.981
REMARK  Name = 4688
REMARK  4 active torsions:
REMARK  status: ('A' for Active; 'I' for Inactive)
REMARK    1  A    between atoms: C_1  and  C_2
REMARK    2  A    between atoms: C_1  and  N_8
REMARK    3  A    between atoms: N_8  and  C_11
REMARK    4  A    between atoms: C_11  and  C_12
REMARK                            x       y       z     vdW  Elec       q    Type
REMARK                         _______ _______ _______ _____ _____    ______ ____
ROOT
ATOM      1  C   UNL     1      35.366 -17.140 -22.265  0.00  0.00    -0.049 C 
ENDROOT
BRANCH   1   2
ATOM      2  C   UNL     1      34.355 -16.047 -22.041  0.00  0.00    -0.043 C 
ATOM      3  C   UNL     1      33.852 -15.347 -23.129  0.00  0.00    -0.006 C 
ATOM      4  C   UNL     1      33.939 -15.755 -20.749  0.00  0.00    -0.006 C 
ATOM      5  C   UNL     1      32.916 -14.334 -22.921  0.00  0.00    -0.000 C 
ATOM      6  C   UNL     1      33.003 -14.742 -20.541  0.00  0.00    -0.000 C 
ATOM      7  C   UNL     1      32.492 -14.032 -21.628  0.00  0.00    -0.000 C 
ENDBRANCH   1   2
BRANCH   1   8
ATOM      8  N   UNL     1      35.166 -18.263 -21.350  0.00  0.00    +0.396 N 
ATOM      9  C   UNL     1      36.440 -18.921 -21.062  0.00  0.00    -0.099 C 
ATOM     10  H   UNL     1      34.783 -17.903 -20.476  0.00  0.00    -0.078 HD
BRANCH   8  11
ATOM     11  C   UNL     1      34.212 -19.218 -21.914  0.00  0.00    +0.003 C 
BRANCH  11  12
ATOM     12  C   UNL     1      33.524 -19.958 -20.852  0.00  0.00    -0.101 C 
ATOM     13  C   UNL     1      32.964 -20.562 -19.977  0.00  0.00    -0.016 C 
ENDBRANCH  11  12
ENDBRANCH   8  11
ENDBRANCH   1   8
TORSDOF 4
ENDMDL
MODEL 5
REMARK VINA RESULT:      -6.2      2.630      3.950
REMARK  Name = 4688
REMARK  4 active torsions:
REMARK  status: ('A' for Active; 'I' for Inactive)
REMARK    1  A    between atoms: C_1  and  C_2
REMARK    2  A    between atoms: C_1  and  N_8
REMARK    3  A    between atoms: N_8  and  C_11
REMARK    4  A    between atoms: C_11  and  C_12
REMARK                            x       y       z     vdW  Elec       q    Type
REMARK                         _______ _______ _______ _____ _____    ______ ____
ROOT
ATOM      1  C   UNL     1      34.547 -15.100 -23.549  0.00  0.00    -0.049 C 
ENDROOT
BRANCH   1   2
ATOM      2  C   UNL     1      34.668 -16.600 -23.601  0.00  0.00    -0.043 C 
ATOM      3  C   UNL     1      34.969 -17.302 -22.443  0.00  0.00    -0.006 C 
ATOM      4  C   UNL     1      34.475 -17.260 -24.808  0.00  0.00    -0.006 C 
ATOM      5  C   UNL     1      35.081 -18.692 -22.491  0.00  0.00    -0.000 C 
ATOM      6  C   UNL     1      34.587 -18.649 -24.856  0.00  0.00    -0.000 C 
ATOM      7  C   UNL     1      34.890 -19.365 -23.698  0.00  0.00    -0.000 C 
ENDBRANCH   1   2
BRANCH   1   8
ATOM      8  N   UNL     1      33.168 -14.657 -23.749  0.00  0.00    +0.396 N 
ATOM      9  C   UNL     1      33.029 -13.983 -25.039  0.00  0.00    -0.099 C 
ATOM     10  H   UNL     1      32.562 -15.477 -23.746  0.00  0.00    -0.078 HD
BRANCH   8  11
ATOM     11  C   UNL     1      32.753 -13.772 -22.662  0.00  0.00    +0.003 C 
BRANCH  11  12
ATOM     12  C   UNL     1      32.714 -14.493 -21.386  0.00  0.00    -0.101 C 
ATOM     13  C   UNL     1      32.688 -15.086 -20.342  0.00  0.00    -0.016 C 
ENDBRANCH  11  12
ENDBRANCH   8  11
ENDBRANCH   1   8
TORSDOF 4
ENDMDL
MODEL 6
REMARK VINA RESULT:      -6.1      2.911      5.962
REMARK  Name = 4688
REMARK  4 active torsions:
REMARK  status: ('A' for Active; 'I' for Inactive)
REMARK    1  A    between atoms: C_1  and  C_2
REMARK    2  A    between atoms: C_1  and  N_8
REMARK    3  A    between atoms: N_8  and  C_11
REMARK    4  A    between atoms: C_11  and  C_12
REMARK                            x       y       z     vdW  Elec       q    Type
REMARK                         _______ _______ _______ _____ _____    ______ ____
ROOT
ATOM      1  C   UNL     1      35.038 -22.493 -18.867  0.00  0.00    -0.049 C 
ENDROOT
BRANCH   1   2
ATOM      2  C   UNL     1      34.592 -21.305 -19.677  0.00  0.00    -0.043 C 
ATOM      3  C   UNL     1      33.239 -21.005 -19.763  0.00  0.00    -0.006 C 
ATOM      4  C   UNL     1      35.539 -20.526 -20.328  0.00  0.00    -0.006 C 
ATOM      5  C   UNL     1      32.826 -19.905 -20.514  0.00  0.00    -0.000 C 
ATOM      6  C   UNL     1      35.126 -19.426 -21.079  0.00  0.00    -0.000 C 
ATOM      7  C   UNL     1      33.769 -19.116 -21.172  0.00  0.00    -0.000 C 
ENDBRANCH   1   2
BRANCH   1   8
ATOM      8  N   UNL     1      35.323 -22.130 -17.480  0.00  0.00    +0.396 N 
ATOM      9  C   UNL     1      36.763 -21.985 -17.274  0.00  0.00    -0.099 C 
ATOM     10  H   UNL     1      34.876 -21.235 -17.282  0.00  0.00    -0.078 HD
BRANCH   8  11
ATOM     11  C   UNL     1      34.774 -23.132 -16.566  0.00  0.00    +0.003 C 
BRANCH  11  12
ATOM     12  C   UNL     1      33.311 -23.172 -16.651  0.00  0.00    -0.101 C 
ATOM     13  C   UNL     1      32.113 -23.211 -16.723  0.00  0.00    -0.016 C 
ENDBRANCH  11  12
ENDBRANCH   8  11
ENDBRANCH   1   8
TORSDOF 4
ENDMDL
MODEL 7
REMARK VINA RESULT:      -6.0      1.599      5.125
REMARK  Name = 4688
REMARK  4 active torsions:
REMARK  status: ('A' for Active; 'I' for Inactive)
REMARK    1  A    between atoms: C_1  and  C_2
REMARK    2  A    between atoms: C_1  and  N_8
REMARK    3  A    between atoms: N_8  and  C_11
REMARK    4  A    between atoms: C_11  and  C_12
REMARK                            x       y       z     vdW  Elec       q    Type
REMARK                         _______ _______ _______ _____ _____    ______ ____
ROOT
ATOM      1  C   UNL     1      35.939 -17.911 -22.899  0.00  0.00    -0.049 C 
ENDROOT
BRANCH   1   2
ATOM      2  C   UNL     1      35.077 -16.852 -23.532  0.00  0.00    -0.043 C 
ATOM      3  C   UNL     1      34.698 -15.744 -22.787  0.00  0.00    -0.006 C 
ATOM      4  C   UNL     1      34.674 -16.997 -24.853  0.00  0.00    -0.006 C 
ATOM      5  C   UNL     1      33.900 -14.762 -23.373  0.00  0.00    -0.000 C 
ATOM      6  C   UNL     1      33.876 -16.015 -25.439  0.00  0.00    -0.000 C 
ATOM      7  C   UNL     1      33.488 -14.898 -24.699  0.00  0.00    -0.000 C 
ENDBRANCH   1   2
BRANCH   1   8
ATOM      8  N   UNL     1      35.304 -18.496 -21.718  0.00  0.00    +0.396 N 
ATOM      9  C   UNL     1      36.302 -19.149 -20.872  0.00  0.00    -0.099 C 
ATOM     10  H   UNL     1      34.866 -17.747 -21.183  0.00  0.00    -0.078 HD
BRANCH   8  11
ATOM     11  C   UNL     1      34.267 -19.448 -22.114  0.00  0.00    +0.003 C 
BRANCH  11  12
ATOM     12  C   UNL     1      33.588 -20.001 -20.938  0.00  0.00    -0.101 C 
ATOM     13  C   UNL     1      33.032 -20.460 -19.977  0.00  0.00    -0.016 C 
ENDBRANCH  11  12
ENDBRANCH   8  11
ENDBRANCH   1   8
TORSDOF 4
ENDMDL
MODEL 8
REMARK VINA RESULT:      -6.0      1.395      5.027
REMARK  Name = 4688
REMARK  4 active torsions:
REMARK  status: ('A' for Active; 'I' for Inactive)
REMARK    1  A    between atoms: C_1  and  C_2
REMARK    2  A    between atoms: C_1  and  N_8
REMARK    3  A    between atoms: N_8  and  C_11
REMARK    4  A    between atoms: C_11  and  C_12
REMARK                            x       y       z     vdW  Elec       q    Type
REMARK                         _______ _______ _______ _____ _____    ______ ____
ROOT
ATOM      1  C   UNL     1      35.319 -18.682 -21.244  0.00  0.00    -0.049 C 
ENDROOT
BRANCH   1   2
ATOM      2  C   UNL     1      35.063 -18.108 -22.612  0.00  0.00    -0.043 C 
ATOM      3  C   UNL     1      34.815 -18.964 -23.677  0.00  0.00    -0.006 C 
ATOM      4  C   UNL     1      35.077 -16.731 -22.790  0.00  0.00    -0.006 C 
ATOM      5  C   UNL     1      34.578 -18.433 -24.944  0.00  0.00    -0.000 C 
ATOM      6  C   UNL     1      34.840 -16.200 -24.057  0.00  0.00    -0.000 C 
ATOM      7  C   UNL     1      34.591 -17.051 -25.134  0.00  0.00    -0.000 C 
ENDBRANCH   1   2
BRANCH   1   8
ATOM      8  N   UNL     1      34.652 -19.970 -21.060  0.00  0.00    +0.396 N 
ATOM      9  C   UNL     1      33.259 -19.772 -20.660  0.00  0.00    -0.099 C 
ATOM     10  H   UNL     1      34.666 -20.471 -21.947  0.00  0.00    -0.078 HD
BRANCH   8  11
ATOM     11  C   UNL     1      35.360 -20.774 -20.064  0.00  0.00    +0.003 C 
BRANCH  11  12
ATOM     12  C   UNL     1      34.451 -21.727 -19.419  0.00  0.00    -0.101 C 
ATOM     13  C   UNL     1      33.703 -22.502 -18.887  0.00  0.00    -0.016 C 
ENDBRANCH  11  12
ENDBRANCH   8  11
ENDBRANCH   1   8
TORSDOF 4
ENDMDL
MODEL 9
REMARK VINA RESULT:      -5.9      1.443      4.976
REMARK  Name = 4688
REMARK  4 active torsions:
REMARK  status: ('A' for Active; 'I' for Inactive)
REMARK    1  A    between atoms: C_1  and  C_2
REMARK    2  A    between atoms: C_1  and  N_8
REMARK    3  A    between atoms: N_8  and  C_11
REMARK    4  A    between atoms: C_11  and  C_12
REMARK                            x       y       z     vdW  Elec       q    Type
REMARK                         _______ _______ _______ _____ _____    ______ ____
ROOT
ATOM      1  C   UNL     1      34.934 -17.592 -21.134  0.00  0.00    -0.049 C 
ENDROOT
BRANCH   1   2
ATOM      2  C   UNL     1      34.300 -16.270 -21.472  0.00  0.00    -0.043 C 
ATOM      3  C   UNL     1      33.282 -15.774 -20.668  0.00  0.00    -0.006 C 
ATOM      4  C   UNL     1      34.741 -15.563 -22.583  0.00  0.00    -0.006 C 
ATOM      5  C   UNL     1      32.694 -14.549 -20.981  0.00  0.00    -0.000 C 
ATOM      6  C   UNL     1      34.153 -14.338 -22.896  0.00  0.00    -0.000 C 
ATOM      7  C   UNL     1      33.129 -13.831 -22.096  0.00  0.00    -0.000 C 
ENDBRANCH   1   2
BRANCH   1   8
ATOM      8  N   UNL     1      34.189 -18.715 -21.701  0.00  0.00    +0.396 N 
ATOM      9  C   UNL     1      33.809 -19.659 -20.651  0.00  0.00    -0.099 C 
ATOM     10  H   UNL     1      33.339 -18.353 -22.133  0.00  0.00    -0.078 HD
BRANCH   8  11
ATOM     11  C   UNL     1      34.981 -19.386 -22.731  0.00  0.00    +0.003 C 
BRANCH  11  12
ATOM     12  C   UNL     1      34.752 -18.779 -24.046  0.00  0.00    -0.101 C 
ATOM     13  C   UNL     1      34.569 -18.285 -25.125  0.00  0.00    -0.016 C 
ENDBRANCH  11  12
ENDBRANCH   8  11
ENDBRANCH   1   8
TORSDOF 4
ENDMDL
