MODEL 1
REMARK VINA RESULT:      -6.4      0.000      0.000
REMARK  Name = 17754119
REMARK  7 active torsions:
REMARK  status: ('A' for Active; 'I' for Inactive)
REMARK    1  A    between atoms: O_1  and  P_2
REMARK    2  A    between atoms: O_1  and  C_8
REMARK    3  A    between atoms: P_2  and  O_4
REMARK    4  A    between atoms: P_2  and  O_6
REMARK    5  A    between atoms: C_8  and  C_10
REMARK    6  A    between atoms: C_8  and  C_13
REMARK    7  A    between atoms: C_10  and  O_11
REMARK                            x       y       z     vdW  Elec       q    Type
REMARK                         _______ _______ _______ _____ _____    ______ ____
ROOT
ATOM      1  O   UNL     1      38.868 -26.770 -14.440  0.00  0.00    -0.264 OA
ENDROOT
BRANCH   1   2
ATOM      2  P   UNL     1      40.262 -25.962 -14.595  0.00  0.00    +0.474 P 
ATOM      3  O   UNL     1      40.298 -24.622 -13.921  0.00  0.00    -0.227 OA
BRANCH   2   4
ATOM      4  O   UNL     1      40.518 -25.941 -16.192  0.00  0.00    -0.303 OA
ATOM      5  H   UNL     1      41.210 -25.293 -16.399  0.00  0.00    +0.222 HD
ENDBRANCH   2   4
BRANCH   2   6
ATOM      6  O   UNL     1      41.356 -27.027 -14.058  0.00  0.00    -0.303 OA
ATOM      7  H   UNL     1      40.915 -27.693 -13.509  0.00  0.00    +0.222 HD
ENDBRANCH   2   6
ENDBRANCH   1   2
BRANCH   1   8
ATOM      8  C   UNL     1      37.676 -26.027 -14.239  0.00  0.00    +0.224 C 
BRANCH   8  10
ATOM      9  O   UNL     1      36.810 -27.307 -16.122  0.00  0.00    -0.248 OA
ATOM     10  C   UNL     1      36.618 -26.528 -15.199  0.00  0.00    +0.342 C 
BRANCH  10  11
ATOM     11  O   UNL     1      35.411 -25.972 -14.925  0.00  0.00    -0.479 OA
ATOM     12  H   UNL     1      34.730 -26.494 -14.549  0.00  0.00    +0.295 HD
ENDBRANCH  10  11
ENDBRANCH   8  10
BRANCH   8  13
ATOM     13  C   UNL     1      37.248 -26.142 -12.775  0.00  0.00    +0.042 C 
ATOM     14  C   UNL     1      37.250 -24.813 -12.028  0.00  0.00    +0.003 C 
ENDBRANCH   8  13
ENDBRANCH   1   8
TORSDOF 7
ENDMDL
MODEL 2
REMARK VINA RESULT:      -6.1      1.976      3.033
REMARK  Name = 17754119
REMARK  7 active torsions:
REMARK  status: ('A' for Active; 'I' for Inactive)
REMARK    1  A    between atoms: O_1  and  P_2
REMARK    2  A    between atoms: O_1  and  C_8
REMARK    3  A    between atoms: P_2  and  O_4
REMARK    4  A    between atoms: P_2  and  O_6
REMARK    5  A    between atoms: C_8  and  C_10
REMARK    6  A    between atoms: C_8  and  C_13
REMARK    7  A    between atoms: C_10  and  O_11
REMARK                            x       y       z     vdW  Elec       q    Type
REMARK                         _______ _______ _______ _____ _____    ______ ____
ROOT
ATOM      1  O   UNL     1      39.268 -24.700 -13.922  0.00  0.00    -0.264 OA
ENDROOT
BRANCH   1   2
ATOM      2  P   UNL     1      39.963 -26.016 -14.558  0.00  0.00    +0.474 P 
ATOM      3  O   UNL     1      41.150 -26.535 -13.801  0.00  0.00    -0.227 OA
BRANCH   2   4
ATOM      4  O   UNL     1      40.252 -25.594 -16.092  0.00  0.00    -0.303 OA
ATOM      5  H   UNL     1      40.753 -26.299 -16.532  0.00  0.00    +0.222 HD
ENDBRANCH   2   4
BRANCH   2   6
ATOM      6  O   UNL     1      38.727 -27.051 -14.685  0.00  0.00    -0.303 OA
ATOM      7  H   UNL     1      37.931 -26.652 -14.299  0.00  0.00    +0.222 HD
ENDBRANCH   2   6
ENDBRANCH   1   2
BRANCH   1   8
ATOM      8  C   UNL     1      37.870 -24.727 -13.675  0.00  0.00    +0.224 C 
BRANCH   8  10
ATOM      9  O   UNL     1      37.881 -24.273 -11.282  0.00  0.00    -0.248 OA
ATOM     10  C   UNL     1      37.638 -25.031 -12.211  0.00  0.00    +0.342 C 
BRANCH  10  11
ATOM     11  O   UNL     1      37.144 -26.285 -12.048  0.00  0.00    -0.479 OA
ATOM     12  H   UNL     1      36.880 -26.784 -12.796  0.00  0.00    +0.295 HD
ENDBRANCH  10  11
ENDBRANCH   8  10
BRANCH   8  13
ATOM     13  C   UNL     1      37.254 -23.397 -14.109  0.00  0.00    +0.042 C 
ATOM     14  C   UNL     1      37.469 -23.071 -15.584  0.00  0.00    +0.003 C 
ENDBRANCH   8  13
ENDBRANCH   1   8
TORSDOF 7
ENDMDL
MODEL 3
REMARK VINA RESULT:      -5.9      2.453      4.008
REMARK  Name = 17754119
REMARK  7 active torsions:
REMARK  status: ('A' for Active; 'I' for Inactive)
REMARK    1  A    between atoms: O_1  and  P_2
REMARK    2  A    between atoms: O_1  and  C_8
REMARK    3  A    between atoms: P_2  and  O_4
REMARK    4  A    between atoms: P_2  and  O_6
REMARK    5  A    between atoms: C_8  and  C_10
REMARK    6  A    between atoms: C_8  and  C_13
REMARK    7  A    between atoms: C_10  and  O_11
REMARK                            x       y       z     vdW  Elec       q    Type
REMARK                         _______ _______ _______ _____ _____    ______ ____
ROOT
ATOM      1  O   UNL     1      38.874 -25.166 -12.844  0.00  0.00    -0.264 OA
ENDROOT
BRANCH   1   2
ATOM      2  P   UNL     1      37.860 -24.012 -12.335  0.00  0.00    +0.474 P 
ATOM      3  O   UNL     1      36.930 -23.475 -13.385  0.00  0.00    -0.227 OA
BRANCH   2   4
ATOM      4  O   UNL     1      38.834 -22.918 -11.650  0.00  0.00    -0.303 OA
ATOM      5  H   UNL     1      39.145 -22.295 -12.325  0.00  0.00    +0.222 HD
ENDBRANCH   2   4
BRANCH   2   6
ATOM      6  O   UNL     1      37.132 -24.705 -11.068  0.00  0.00    -0.303 OA
ATOM      7  H   UNL     1      36.184 -24.797 -11.250  0.00  0.00    +0.222 HD
ENDBRANCH   2   6
ENDBRANCH   1   2
BRANCH   1   8
ATOM      8  C   UNL     1      38.774 -25.609 -14.188  0.00  0.00    +0.224 C 
BRANCH   8  10
ATOM      9  O   UNL     1      41.037 -26.482 -13.969  0.00  0.00    -0.248 OA
ATOM     10  C   UNL     1      40.148 -26.022 -14.671  0.00  0.00    +0.342 C 
BRANCH  10  11
ATOM     11  O   UNL     1      40.286 -25.787 -16.000  0.00  0.00    -0.479 OA
ATOM     12  H   UNL     1      40.979 -26.199 -16.479  0.00  0.00    +0.295 HD
ENDBRANCH  10  11
ENDBRANCH   8  10
BRANCH   8  13
ATOM     13  C   UNL     1      37.751 -26.742 -14.274  0.00  0.00    +0.042 C 
ATOM     14  C   UNL     1      36.642 -26.493 -15.292  0.00  0.00    +0.003 C 
ENDBRANCH   8  13
ENDBRANCH   1   8
TORSDOF 7
ENDMDL
MODEL 4
REMARK VINA RESULT:      -5.8      2.858      3.912
REMARK  Name = 17754119
REMARK  7 active torsions:
REMARK  status: ('A' for Active; 'I' for Inactive)
REMARK    1  A    between atoms: O_1  and  P_2
REMARK    2  A    between atoms: O_1  and  C_8
REMARK    3  A    between atoms: P_2  and  O_4
REMARK    4  A    between atoms: P_2  and  O_6
REMARK    5  A    between atoms: C_8  and  C_10
REMARK    6  A    between atoms: C_8  and  C_13
REMARK    7  A    between atoms: C_10  and  O_11
REMARK                            x       y       z     vdW  Elec       q    Type
REMARK                         _______ _______ _______ _____ _____    ______ ____
ROOT
ATOM      1  O   UNL     1      38.135 -24.013 -13.458  0.00  0.00    -0.264 OA
ENDROOT
BRANCH   1   2
ATOM      2  P   UNL     1      37.327 -23.478 -12.161  0.00  0.00    +0.474 P 
ATOM      3  O   UNL     1      37.333 -24.406 -10.982  0.00  0.00    -0.227 OA
BRANCH   2   4
ATOM      4  O   UNL     1      35.864 -23.110 -12.745  0.00  0.00    -0.303 OA
ATOM      5  H   UNL     1      35.184 -23.399 -12.116  0.00  0.00    +0.222 HD
ENDBRANCH   2   4
BRANCH   2   6
ATOM      6  O   UNL     1      37.995 -22.029 -11.895  0.00  0.00    -0.303 OA
ATOM      7  H   UNL     1      37.713 -21.411 -12.586  0.00  0.00    +0.222 HD
ENDBRANCH   2   6
ENDBRANCH   1   2
BRANCH   1   8
ATOM      8  C   UNL     1      37.971 -25.369 -13.844  0.00  0.00    +0.224 C 
BRANCH   8  10
ATOM      9  O   UNL     1      36.383 -24.538 -15.493  0.00  0.00    -0.248 OA
ATOM     10  C   UNL     1      37.131 -25.423 -15.101  0.00  0.00    +0.342 C 
BRANCH  10  11
ATOM     11  O   UNL     1      37.289 -26.610 -15.741  0.00  0.00    -0.479 OA
ATOM     12  H   UNL     1      38.077 -27.103 -15.622  0.00  0.00    +0.295 HD
ENDBRANCH  10  11
ENDBRANCH   8  10
BRANCH   8  13
ATOM     13  C   UNL     1      39.346 -26.014 -14.022  0.00  0.00    +0.042 C 
ATOM     14  C   UNL     1      40.311 -25.183 -14.861  0.00  0.00    +0.003 C 
ENDBRANCH   8  13
ENDBRANCH   1   8
TORSDOF 7
ENDMDL
MODEL 5
REMARK VINA RESULT:      -5.7      2.593      4.083
REMARK  Name = 17754119
REMARK  7 active torsions:
REMARK  status: ('A' for Active; 'I' for Inactive)
REMARK    1  A    between atoms: O_1  and  P_2
REMARK    2  A    between atoms: O_1  and  C_8
REMARK    3  A    between atoms: P_2  and  O_4
REMARK    4  A    between atoms: P_2  and  O_6
REMARK    5  A    between atoms: C_8  and  C_10
REMARK    6  A    between atoms: C_8  and  C_13
REMARK    7  A    between atoms: C_10  and  O_11
REMARK                            x       y       z     vdW  Elec       q    Type
REMARK                         _______ _______ _______ _____ _____    ______ ____
ROOT
ATOM      1  O   UNL     1      37.707 -24.887 -14.246  0.00  0.00    -0.264 OA
ENDROOT
BRANCH   1   2
ATOM      2  P   UNL     1      37.296 -26.426 -14.533  0.00  0.00    +0.474 P 
ATOM      3  O   UNL     1      36.328 -26.625 -15.662  0.00  0.00    -0.227 OA
BRANCH   2   4
ATOM      4  O   UNL     1      36.799 -26.966 -13.092  0.00  0.00    -0.303 OA
ATOM      5  H   UNL     1      37.193 -27.835 -12.919  0.00  0.00    +0.222 HD
ENDBRANCH   2   4
BRANCH   2   6
ATOM      6  O   UNL     1      38.729 -27.150 -14.726  0.00  0.00    -0.303 OA
ATOM      7  H   UNL     1      38.617 -28.111 -14.660  0.00  0.00    +0.222 HD
ENDBRANCH   2   6
ENDBRANCH   1   2
BRANCH   1   8
ATOM      8  C   UNL     1      36.855 -24.102 -13.426  0.00  0.00    +0.224 C 
BRANCH   8  10
ATOM      9  O   UNL     1      38.147 -22.550 -12.063  0.00  0.00    -0.248 OA
ATOM     10  C   UNL     1      37.630 -23.649 -12.207  0.00  0.00    +0.342 C 
BRANCH  10  11
ATOM     11  O   UNL     1      37.709 -24.643 -11.286  0.00  0.00    -0.479 OA
ATOM     12  H   UNL     1      38.532 -24.844 -10.885  0.00  0.00    +0.295 HD
ENDBRANCH  10  11
ENDBRANCH   8  10
BRANCH   8  13
ATOM     13  C   UNL     1      36.301 -22.934 -14.242  0.00  0.00    +0.042 C 
ATOM     14  C   UNL     1      37.038 -22.698 -15.557  0.00  0.00    +0.003 C 
ENDBRANCH   8  13
ENDBRANCH   1   8
TORSDOF 7
ENDMDL
MODEL 6
REMARK VINA RESULT:      -5.6      2.830      4.349
REMARK  Name = 17754119
REMARK  7 active torsions:
REMARK  status: ('A' for Active; 'I' for Inactive)
REMARK    1  A    between atoms: O_1  and  P_2
REMARK    2  A    between atoms: O_1  and  C_8
REMARK    3  A    between atoms: P_2  and  O_4
REMARK    4  A    between atoms: P_2  and  O_6
REMARK    5  A    between atoms: C_8  and  C_10
REMARK    6  A    between atoms: C_8  and  C_13
REMARK    7  A    between atoms: C_10  and  O_11
REMARK                            x       y       z     vdW  Elec       q    Type
REMARK                         _______ _______ _______ _____ _____    ______ ____
ROOT
ATOM      1  O   UNL     1      37.076 -25.545 -13.590  0.00  0.00    -0.264 OA
ENDROOT
BRANCH   1   2
ATOM      2  P   UNL     1      36.122 -25.244 -14.862  0.00  0.00    +0.474 P 
ATOM      3  O   UNL     1      34.740 -24.768 -14.520  0.00  0.00    -0.227 OA
BRANCH   2   4
ATOM      4  O   UNL     1      36.189 -26.609 -15.725  0.00  0.00    -0.303 OA
ATOM      5  H   UNL     1      35.421 -26.656 -16.316  0.00  0.00    +0.222 HD
ENDBRANCH   2   4
BRANCH   2   6
ATOM      6  O   UNL     1      37.004 -24.208 -15.736  0.00  0.00    -0.303 OA
ATOM      7  H   UNL     1      37.341 -23.504 -15.161  0.00  0.00    +0.222 HD
ENDBRANCH   2   6
ENDBRANCH   1   2
BRANCH   1   8
ATOM      8  C   UNL     1      38.232 -24.742 -13.407  0.00  0.00    +0.224 C 
BRANCH   8  10
ATOM      9  O   UNL     1      38.770 -23.084 -11.705  0.00  0.00    -0.248 OA
ATOM     10  C   UNL     1      38.167 -24.094 -12.041  0.00  0.00    +0.342 C 
BRANCH  10  11
ATOM     11  O   UNL     1      37.366 -24.803 -11.206  0.00  0.00    -0.479 OA
ATOM     12  H   UNL     1      36.639 -24.384 -10.787  0.00  0.00    +0.295 HD
ENDBRANCH  10  11
ENDBRANCH   8  10
BRANCH   8  13
ATOM     13  C   UNL     1      39.482 -25.602 -13.596  0.00  0.00    +0.042 C 
ATOM     14  C   UNL     1      40.214 -25.343 -14.909  0.00  0.00    +0.003 C 
ENDBRANCH   8  13
ENDBRANCH   1   8
TORSDOF 7
ENDMDL
MODEL 7
REMARK VINA RESULT:      -5.6      2.896      4.043
REMARK  Name = 17754119
REMARK  7 active torsions:
REMARK  status: ('A' for Active; 'I' for Inactive)
REMARK    1  A    between atoms: O_1  and  P_2
REMARK    2  A    between atoms: O_1  and  C_8
REMARK    3  A    between atoms: P_2  and  O_4
REMARK    4  A    between atoms: P_2  and  O_6
REMARK    5  A    between atoms: C_8  and  C_10
REMARK    6  A    between atoms: C_8  and  C_13
REMARK    7  A    between atoms: C_10  and  O_11
REMARK                            x       y       z     vdW  Elec       q    Type
REMARK                         _______ _______ _______ _____ _____    ______ ____
ROOT
ATOM      1  O   UNL     1      36.293 -24.580 -13.574  0.00  0.00    -0.264 OA
ENDROOT
BRANCH   1   2
ATOM      2  P   UNL     1      36.375 -24.801 -11.973  0.00  0.00    +0.474 P 
ATOM      3  O   UNL     1      37.094 -23.721 -11.218  0.00  0.00    -0.227 OA
BRANCH   2   4
ATOM      4  O   UNL     1      37.001 -26.284 -11.821  0.00  0.00    -0.303 OA
ATOM      5  H   UNL     1      36.432 -26.817 -11.243  0.00  0.00    +0.222 HD
ENDBRANCH   2   4
BRANCH   2   6
ATOM      6  O   UNL     1      34.825 -25.008 -11.558  0.00  0.00    -0.303 OA
ATOM      7  H   UNL     1      34.741 -25.800 -11.006  0.00  0.00    +0.222 HD
ENDBRANCH   2   6
ENDBRANCH   1   2
BRANCH   1   8
ATOM      8  C   UNL     1      37.422 -24.923 -14.362  0.00  0.00    +0.224 C 
BRANCH   8  10
ATOM      9  O   UNL     1      36.235 -26.513 -15.775  0.00  0.00    -0.248 OA
ATOM     10  C   UNL     1      37.168 -26.259 -15.026  0.00  0.00    +0.342 C 
BRANCH  10  11
ATOM     11  O   UNL     1      38.103 -27.171 -14.656  0.00  0.00    -0.479 OA
ATOM     12  H   UNL     1      38.913 -26.884 -14.281  0.00  0.00    +0.295 HD
ENDBRANCH  10  11
ENDBRANCH   8  10
BRANCH   8  13
ATOM     13  C   UNL     1      37.697 -23.805 -15.368  0.00  0.00    +0.042 C 
ATOM     14  C   UNL     1      36.475 -22.949 -15.685  0.00  0.00    +0.003 C 
ENDBRANCH   8  13
ENDBRANCH   1   8
TORSDOF 7
ENDMDL
MODEL 8
REMARK VINA RESULT:      -5.5      2.379      3.902
REMARK  Name = 17754119
REMARK  7 active torsions:
REMARK  status: ('A' for Active; 'I' for Inactive)
REMARK    1  A    between atoms: O_1  and  P_2
REMARK    2  A    between atoms: O_1  and  C_8
REMARK    3  A    between atoms: P_2  and  O_4
REMARK    4  A    between atoms: P_2  and  O_6
REMARK    5  A    between atoms: C_8  and  C_10
REMARK    6  A    between atoms: C_8  and  C_13
REMARK    7  A    between atoms: C_10  and  O_11
REMARK                            x       y       z     vdW  Elec       q    Type
REMARK                         _______ _______ _______ _____ _____    ______ ____
ROOT
ATOM      1  O   UNL     1      38.566 -24.054 -14.561  0.00  0.00    -0.264 OA
ENDROOT
BRANCH   1   2
ATOM      2  P   UNL     1      37.258 -23.515 -15.346  0.00  0.00    +0.474 P 
ATOM      3  O   UNL     1      37.540 -22.562 -16.471  0.00  0.00    -0.227 OA
BRANCH   2   4
ATOM      4  O   UNL     1      36.315 -22.933 -14.168  0.00  0.00    -0.303 OA
ATOM      5  H   UNL     1      35.783 -23.653 -13.795  0.00  0.00    +0.222 HD
ENDBRANCH   2   4
BRANCH   2   6
ATOM      6  O   UNL     1      36.510 -24.882 -15.780  0.00  0.00    -0.303 OA
ATOM      7  H   UNL     1      37.011 -25.643 -15.450  0.00  0.00    +0.222 HD
ENDBRANCH   2   6
ENDBRANCH   1   2
BRANCH   1   8
ATOM      8  C   UNL     1      38.681 -25.448 -14.317  0.00  0.00    +0.224 C 
BRANCH   8  10
ATOM      9  O   UNL     1      40.917 -26.339 -13.943  0.00  0.00    -0.248 OA
ATOM     10  C   UNL     1      40.071 -25.901 -14.709  0.00  0.00    +0.342 C 
BRANCH  10  11
ATOM     11  O   UNL     1      40.280 -25.729 -16.039  0.00  0.00    -0.479 OA
ATOM     12  H   UNL     1      39.600 -25.373 -16.578  0.00  0.00    +0.295 HD
ENDBRANCH  10  11
ENDBRANCH   8  10
BRANCH   8  13
ATOM     13  C   UNL     1      38.358 -25.733 -12.850  0.00  0.00    +0.042 C 
ATOM     14  C   UNL     1      38.354 -24.489 -11.968  0.00  0.00    +0.003 C 
ENDBRANCH   8  13
ENDBRANCH   1   8
TORSDOF 7
ENDMDL
MODEL 9
REMARK VINA RESULT:      -5.4      2.519      3.748
REMARK  Name = 17754119
REMARK  7 active torsions:
REMARK  status: ('A' for Active; 'I' for Inactive)
REMARK    1  A    between atoms: O_1  and  P_2
REMARK    2  A    between atoms: O_1  and  C_8
REMARK    3  A    between atoms: P_2  and  O_4
REMARK    4  A    between atoms: P_2  and  O_6
REMARK    5  A    between atoms: C_8  and  C_10
REMARK    6  A    between atoms: C_8  and  C_13
REMARK    7  A    between atoms: C_10  and  O_11
REMARK                            x       y       z     vdW  Elec       q    Type
REMARK                         _______ _______ _______ _____ _____    ______ ____
ROOT
ATOM      1  O   UNL     1      36.258 -25.165 -14.850  0.00  0.00    -0.264 OA
ENDROOT
BRANCH   1   2
ATOM      2  P   UNL     1      37.053 -26.555 -15.085  0.00  0.00    +0.474 P 
ATOM      3  O   UNL     1      36.566 -27.378 -16.242  0.00  0.00    -0.227 OA
BRANCH   2   4
ATOM      4  O   UNL     1      36.987 -27.283 -13.643  0.00  0.00    -0.303 OA
ATOM      5  H   UNL     1      37.845 -27.692 -13.448  0.00  0.00    +0.222 HD
ENDBRANCH   2   4
BRANCH   2   6
ATOM      6  O   UNL     1      38.594 -26.075 -15.188  0.00  0.00    -0.303 OA
ATOM      7  H   UNL     1      38.773 -25.413 -14.503  0.00  0.00    +0.222 HD
ENDBRANCH   2   6
ENDBRANCH   1   2
BRANCH   1   8
ATOM      8  C   UNL     1      36.973 -24.058 -14.324  0.00  0.00    +0.224 C 
BRANCH   8  10
ATOM      9  O   UNL     1      36.351 -22.225 -15.803  0.00  0.00    -0.248 OA
ATOM     10  C   UNL     1      37.180 -23.041 -15.426  0.00  0.00    +0.342 C 
BRANCH  10  11
ATOM     11  O   UNL     1      38.414 -23.167 -15.977  0.00  0.00    -0.479 OA
ATOM     12  H   UNL     1      38.911 -22.402 -16.191  0.00  0.00    +0.295 HD
ENDBRANCH  10  11
ENDBRANCH   8  10
BRANCH   8  13
ATOM     13  C   UNL     1      36.213 -23.487 -13.126  0.00  0.00    +0.042 C 
ATOM     14  C   UNL     1      34.818 -24.077 -12.945  0.00  0.00    +0.003 C 
ENDBRANCH   8  13
ENDBRANCH   1   8
TORSDOF 7
ENDMDL
