MODEL 1
REMARK VINA RESULT:      -5.2      0.000      0.000
REMARK  Name = 6106
REMARK  5 active torsions:
REMARK  status: ('A' for Active; 'I' for Inactive)
REMARK    1  A    between atoms: CA_1  and  N_2
REMARK    2  A    between atoms: CA_1  and  C_7
REMARK    3  A    between atoms: CA_1  and  CB_10
REMARK    4  A    between atoms: C_7  and  O_8
REMARK    5  A    between atoms: CB_10  and  CG_11
REMARK                            x       y       z     vdW  Elec       q    Type
REMARK                         _______ _______ _______ _____ _____    ______ ____
ROOT
ATOM      1  CA  LEU A   1      39.145 -25.095 -14.259  0.00  0.00    +0.036 C 
ENDROOT
BRANCH   1   2
ATOM      2  N   LEU A   1      38.501 -24.567 -15.460  0.00  0.00    +0.389 N 
ATOM      3  H1  LEU A   1      37.491 -24.692 -15.387  0.00  0.00    -0.088 HD
ATOM      4  H2  LEU A   1      38.846 -25.067 -16.279  0.00  0.00    -0.088 HD
ATOM      5  H3  LEU A   1      38.714 -23.574 -15.553  0.00  0.00    -0.088 HD
ENDBRANCH   1   2
BRANCH   1   7
ATOM      6  OXT LEU A   1      41.058 -26.589 -13.972  0.00  0.00    -0.253 OA
ATOM      7  C   LEU A   1      40.310 -25.960 -14.711  0.00  0.00    +0.293 C 
BRANCH   7   8
ATOM      8  O   LEU A   1      40.447 -25.959 -16.063  0.00  0.00    -0.482 OA
ATOM      9  H   LEU A   1      41.128 -26.460 -16.466  0.00  0.00    +0.295 HD
ENDBRANCH   7   8
ENDBRANCH   1   7
BRANCH   1  10
ATOM     10  CB  LEU A   1      38.174 -25.939 -13.418  0.00  0.00    -0.011 C 
BRANCH  10  11
ATOM     11  CG  LEU A   1      37.501 -25.211 -12.236  0.00  0.00    -0.002 C 
ATOM     12  CD1 LEU A   1      36.029 -24.897 -12.508  0.00  0.00    -0.000 C 
ATOM     13  CD2 LEU A   1      38.256 -23.914 -11.931  0.00  0.00    -0.000 C 
ENDBRANCH  10  11
ENDBRANCH   1  10
TORSDOF 5
ENDMDL
MODEL 2
REMARK VINA RESULT:      -5.1     11.245     11.832
REMARK  Name = 6106
REMARK  5 active torsions:
REMARK  status: ('A' for Active; 'I' for Inactive)
REMARK    1  A    between atoms: CA_1  and  N_2
REMARK    2  A    between atoms: CA_1  and  C_7
REMARK    3  A    between atoms: CA_1  and  CB_10
REMARK    4  A    between atoms: C_7  and  O_8
REMARK    5  A    between atoms: CB_10  and  CG_11
REMARK                            x       y       z     vdW  Elec       q    Type
REMARK                         _______ _______ _______ _____ _____    ______ ____
ROOT
ATOM      1  CA  LEU A   1      34.850 -17.840 -22.573  0.00  0.00    +0.036 C 
ENDROOT
BRANCH   1   2
ATOM      2  N   LEU A   1      36.056 -18.369 -23.207  0.00  0.00    +0.389 N 
ATOM      3  H1  LEU A   1      35.909 -18.436 -24.215  0.00  0.00    -0.088 HD
ATOM      4  H2  LEU A   1      36.261 -19.294 -22.832  0.00  0.00    -0.088 HD
ATOM      5  H3  LEU A   1      36.841 -17.745 -23.020  0.00  0.00    -0.088 HD
ENDBRANCH   1   2
BRANCH   1   7
ATOM      6  OXT LEU A   1      34.694 -15.623 -21.557  0.00  0.00    -0.253 OA
ATOM      7  C   LEU A   1      34.994 -16.328 -22.511  0.00  0.00    +0.293 C 
BRANCH   7   8
ATOM      8  O   LEU A   1      35.500 -15.821 -23.667  0.00  0.00    -0.482 OA
ATOM      9  H   LEU A   1      36.086 -15.090 -23.642  0.00  0.00    +0.295 HD
ENDBRANCH   7   8
ENDBRANCH   1   7
BRANCH   1  10
ATOM     10  CB  LEU A   1      34.664 -18.397 -21.153  0.00  0.00    -0.011 C 
BRANCH  10  11
ATOM     11  CG  LEU A   1      34.271 -19.885 -21.059  0.00  0.00    -0.002 C 
ATOM     12  CD1 LEU A   1      32.878 -20.083 -20.460  0.00  0.00    -0.000 C 
ATOM     13  CD2 LEU A   1      35.305 -20.640 -20.218  0.00  0.00    -0.000 C 
ENDBRANCH  10  11
ENDBRANCH   1  10
TORSDOF 5
ENDMDL
MODEL 3
REMARK VINA RESULT:      -5.1     11.227     11.965
REMARK  Name = 6106
REMARK  5 active torsions:
REMARK  status: ('A' for Active; 'I' for Inactive)
REMARK    1  A    between atoms: CA_1  and  N_2
REMARK    2  A    between atoms: CA_1  and  C_7
REMARK    3  A    between atoms: CA_1  and  CB_10
REMARK    4  A    between atoms: C_7  and  O_8
REMARK    5  A    between atoms: CB_10  and  CG_11
REMARK                            x       y       z     vdW  Elec       q    Type
REMARK                         _______ _______ _______ _____ _____    ______ ____
ROOT
ATOM      1  CA  LEU A   1      40.956 -14.356 -15.554  0.00  0.00    +0.036 C 
ENDROOT
BRANCH   1   2
ATOM      2  N   LEU A   1      40.554 -13.811 -14.259  0.00  0.00    +0.389 N 
ATOM      3  H1  LEU A   1      40.389 -12.808 -14.348  0.00  0.00    -0.088 HD
ATOM      4  H2  LEU A   1      41.293 -13.974 -13.576  0.00  0.00    -0.088 HD
ATOM      5  H3  LEU A   1      39.697 -14.269 -13.948  0.00  0.00    -0.088 HD
ENDBRANCH   1   2
BRANCH   1   7
ATOM      6  OXT LEU A   1      42.090 -16.519 -15.467  0.00  0.00    -0.253 OA
ATOM      7  C   LEU A   1      41.058 -15.865 -15.401  0.00  0.00    +0.293 C 
BRANCH   7   8
ATOM      8  O   LEU A   1      39.842 -16.434 -15.183  0.00  0.00    -0.482 OA
ATOM      9  H   LEU A   1      39.060 -15.972 -15.414  0.00  0.00    +0.295 HD
ENDBRANCH   7   8
ENDBRANCH   1   7
BRANCH   1  10
ATOM     10  CB  LEU A   1      42.312 -13.794 -16.010  0.00  0.00    -0.011 C 
BRANCH  10  11
ATOM     11  CG  LEU A   1      42.408 -13.391 -17.496  0.00  0.00    -0.002 C 
ATOM     12  CD1 LEU A   1      42.413 -11.874 -17.689  0.00  0.00    -0.000 C 
ATOM     13  CD2 LEU A   1      41.239 -14.005 -18.273  0.00  0.00    -0.000 C 
ENDBRANCH  10  11
ENDBRANCH   1  10
TORSDOF 5
ENDMDL
MODEL 4
REMARK VINA RESULT:      -5.1     11.055     11.718
REMARK  Name = 6106
REMARK  5 active torsions:
REMARK  status: ('A' for Active; 'I' for Inactive)
REMARK    1  A    between atoms: CA_1  and  N_2
REMARK    2  A    between atoms: CA_1  and  C_7
REMARK    3  A    between atoms: CA_1  and  CB_10
REMARK    4  A    between atoms: C_7  and  O_8
REMARK    5  A    between atoms: CB_10  and  CG_11
REMARK                            x       y       z     vdW  Elec       q    Type
REMARK                         _______ _______ _______ _____ _____    ______ ____
ROOT
ATOM      1  CA  LEU A   1      35.529 -18.063 -22.197  0.00  0.00    +0.036 C 
ENDROOT
BRANCH   1   2
ATOM      2  N   LEU A   1      35.157 -17.132 -21.132  0.00  0.00    +0.389 N 
ATOM      3  H1  LEU A   1      35.469 -16.193 -21.377  0.00  0.00    -0.088 HD
ATOM      4  H2  LEU A   1      35.597 -17.420 -20.259  0.00  0.00    -0.088 HD
ATOM      5  H3  LEU A   1      34.143 -17.134 -21.018  0.00  0.00    -0.088 HD
ENDBRANCH   1   2
BRANCH   1   7
ATOM      6  OXT LEU A   1      34.518 -17.941 -24.419  0.00  0.00    -0.253 OA
ATOM      7  C   LEU A   1      35.158 -17.411 -23.519  0.00  0.00    +0.293 C 
BRANCH   7   8
ATOM      8  O   LEU A   1      35.633 -16.141 -23.608  0.00  0.00    -0.482 OA
ATOM      9  H   LEU A   1      36.028 -15.734 -22.861  0.00  0.00    +0.295 HD
ENDBRANCH   7   8
ENDBRANCH   1   7
BRANCH   1  10
ATOM     10  CB  LEU A   1      34.793 -19.405 -22.061  0.00  0.00    -0.011 C 
BRANCH  10  11
ATOM     11  CG  LEU A   1      34.346 -19.786 -20.635  0.00  0.00    -0.002 C 
ATOM     12  CD1 LEU A   1      35.170 -20.935 -20.054  0.00  0.00    -0.000 C 
ATOM     13  CD2 LEU A   1      32.863 -20.171 -20.646  0.00  0.00    -0.000 C 
ENDBRANCH  10  11
ENDBRANCH   1  10
TORSDOF 5
ENDMDL
MODEL 5
REMARK VINA RESULT:      -5.0      1.976      2.253
REMARK  Name = 6106
REMARK  5 active torsions:
REMARK  status: ('A' for Active; 'I' for Inactive)
REMARK    1  A    between atoms: CA_1  and  N_2
REMARK    2  A    between atoms: CA_1  and  C_7
REMARK    3  A    between atoms: CA_1  and  CB_10
REMARK    4  A    between atoms: C_7  and  O_8
REMARK    5  A    between atoms: CB_10  and  CG_11
REMARK                            x       y       z     vdW  Elec       q    Type
REMARK                         _______ _______ _______ _____ _____    ______ ____
ROOT
ATOM      1  CA  LEU A   1      38.709 -26.011 -14.390  0.00  0.00    +0.036 C 
ENDROOT
BRANCH   1   2
ATOM      2  N   LEU A   1      38.692 -25.894 -12.933  0.00  0.00    +0.389 N 
ATOM      3  H1  LEU A   1      38.267 -25.006 -12.668  0.00  0.00    -0.088 HD
ATOM      4  H2  LEU A   1      39.647 -25.932 -12.578  0.00  0.00    -0.088 HD
ATOM      5  H3  LEU A   1      38.151 -26.662 -12.536  0.00  0.00    -0.088 HD
ENDBRANCH   1   2
BRANCH   1   7
ATOM      6  OXT LEU A   1      40.810 -24.772 -14.229  0.00  0.00    -0.253 OA
ATOM      7  C   LEU A   1      40.051 -25.485 -14.873  0.00  0.00    +0.293 C 
BRANCH   7   8
ATOM      8  O   LEU A   1      40.327 -25.893 -16.140  0.00  0.00    -0.482 OA
ATOM      9  H   LEU A   1      40.453 -25.259 -16.820  0.00  0.00    +0.295 HD
ENDBRANCH   7   8
ENDBRANCH   1   7
BRANCH   1  10
ATOM     10  CB  LEU A   1      37.575 -25.200 -15.038  0.00  0.00    -0.011 C 
BRANCH  10  11
ATOM     11  CG  LEU A   1      37.486 -23.718 -14.623  0.00  0.00    -0.002 C 
ATOM     12  CD1 LEU A   1      36.198 -23.403 -13.861  0.00  0.00    -0.000 C 
ATOM     13  CD2 LEU A   1      37.580 -22.827 -15.866  0.00  0.00    -0.000 C 
ENDBRANCH  10  11
ENDBRANCH   1  10
TORSDOF 5
ENDMDL
MODEL 6
REMARK VINA RESULT:      -5.0      3.743      4.680
REMARK  Name = 6106
REMARK  5 active torsions:
REMARK  status: ('A' for Active; 'I' for Inactive)
REMARK    1  A    between atoms: CA_1  and  N_2
REMARK    2  A    between atoms: CA_1  and  C_7
REMARK    3  A    between atoms: CA_1  and  CB_10
REMARK    4  A    between atoms: C_7  and  O_8
REMARK    5  A    between atoms: CB_10  and  CG_11
REMARK                            x       y       z     vdW  Elec       q    Type
REMARK                         _______ _______ _______ _____ _____    ______ ____
ROOT
ATOM      1  CA  LEU A   1      36.895 -24.562 -12.283  0.00  0.00    +0.036 C 
ENDROOT
BRANCH   1   2
ATOM      2  N   LEU A   1      37.917 -23.887 -11.485  0.00  0.00    +0.389 N 
ATOM      3  H1  LEU A   1      37.940 -24.293 -10.549  0.00  0.00    -0.088 HD
ATOM      4  H2  LEU A   1      37.698 -22.894 -11.419  0.00  0.00    -0.088 HD
ATOM      5  H3  LEU A   1      38.828 -24.005 -11.928  0.00  0.00    -0.088 HD
ENDBRANCH   1   2
BRANCH   1   7
ATOM      6  OXT LEU A   1      35.328 -25.136 -10.498  0.00  0.00    -0.253 OA
ATOM      7  C   LEU A   1      35.591 -24.491 -11.505  0.00  0.00    +0.293 C 
BRANCH   7   8
ATOM      8  O   LEU A   1      34.715 -23.616 -12.064  0.00  0.00    -0.482 OA
ATOM      9  H   LEU A   1      34.862 -22.693 -11.991  0.00  0.00    +0.295 HD
ENDBRANCH   7   8
ENDBRANCH   1   7
BRANCH   1  10
ATOM     10  CB  LEU A   1      37.258 -26.032 -12.546  0.00  0.00    -0.011 C 
BRANCH  10  11
ATOM     11  CG  LEU A   1      37.575 -26.395 -14.011  0.00  0.00    -0.002 C 
ATOM     12  CD1 LEU A   1      38.937 -25.865 -14.461  0.00  0.00    -0.000 C 
ATOM     13  CD2 LEU A   1      36.479 -25.842 -14.928  0.00  0.00    -0.000 C 
ENDBRANCH  10  11
ENDBRANCH   1  10
TORSDOF 5
ENDMDL
MODEL 7
REMARK VINA RESULT:      -4.9     12.240     12.869
REMARK  Name = 6106
REMARK  5 active torsions:
REMARK  status: ('A' for Active; 'I' for Inactive)
REMARK    1  A    between atoms: CA_1  and  N_2
REMARK    2  A    between atoms: CA_1  and  C_7
REMARK    3  A    between atoms: CA_1  and  CB_10
REMARK    4  A    between atoms: C_7  and  O_8
REMARK    5  A    between atoms: CB_10  and  CG_11
REMARK                            x       y       z     vdW  Elec       q    Type
REMARK                         _______ _______ _______ _____ _____    ______ ____
ROOT
ATOM      1  CA  LEU A   1      34.693 -18.168 -23.802  0.00  0.00    +0.036 C 
ENDROOT
BRANCH   1   2
ATOM      2  N   LEU A   1      34.640 -19.328 -24.689  0.00  0.00    +0.389 N 
ATOM      3  H1  LEU A   1      34.351 -20.150 -24.158  0.00  0.00    -0.088 HD
ATOM      4  H2  LEU A   1      35.562 -19.491 -25.092  0.00  0.00    -0.088 HD
ATOM      5  H3  LEU A   1      33.968 -19.155 -25.437  0.00  0.00    -0.088 HD
ENDBRANCH   1   2
BRANCH   1   7
ATOM      6  OXT LEU A   1      34.680 -16.834 -25.850  0.00  0.00    -0.253 OA
ATOM      7  C   LEU A   1      34.968 -16.947 -24.665  0.00  0.00    +0.293 C 
BRANCH   7   8
ATOM      8  O   LEU A   1      35.596 -15.964 -23.967  0.00  0.00    -0.482 OA
ATOM      9  H   LEU A   1      36.408 -16.142 -23.533  0.00  0.00    +0.295 HD
ENDBRANCH   7   8
ENDBRANCH   1   7
BRANCH   1  10
ATOM     10  CB  LEU A   1      35.800 -18.310 -22.746  0.00  0.00    -0.011 C 
BRANCH  10  11
ATOM     11  CG  LEU A   1      35.331 -18.316 -21.276  0.00  0.00    -0.002 C 
ATOM     12  CD1 LEU A   1      34.203 -19.318 -21.029  0.00  0.00    -0.000 C 
ATOM     13  CD2 LEU A   1      34.869 -16.911 -20.876  0.00  0.00    -0.000 C 
ENDBRANCH  10  11
ENDBRANCH   1  10
TORSDOF 5
ENDMDL
MODEL 8
REMARK VINA RESULT:      -4.9      9.065      9.680
REMARK  Name = 6106
REMARK  5 active torsions:
REMARK  status: ('A' for Active; 'I' for Inactive)
REMARK    1  A    between atoms: CA_1  and  N_2
REMARK    2  A    between atoms: CA_1  and  C_7
REMARK    3  A    between atoms: CA_1  and  CB_10
REMARK    4  A    between atoms: C_7  and  O_8
REMARK    5  A    between atoms: CB_10  and  CG_11
REMARK                            x       y       z     vdW  Elec       q    Type
REMARK                         _______ _______ _______ _____ _____    ______ ____
ROOT
ATOM      1  CA  LEU A   1      33.870 -21.260 -20.213  0.00  0.00    +0.036 C 
ENDROOT
BRANCH   1   2
ATOM      2  N   LEU A   1      32.690 -20.745 -19.521  0.00  0.00    +0.389 N 
ATOM      3  H1  LEU A   1      32.568 -19.757 -19.747  0.00  0.00    -0.088 HD
ATOM      4  H2  LEU A   1      32.814 -20.849 -18.514  0.00  0.00    -0.088 HD
ATOM      5  H3  LEU A   1      31.866 -21.266 -19.818  0.00  0.00    -0.088 HD
ENDBRANCH   1   2
BRANCH   1   7
ATOM      6  OXT LEU A   1      35.468 -22.154 -18.593  0.00  0.00    -0.253 OA
ATOM      7  C   LEU A   1      34.495 -22.319 -19.319  0.00  0.00    +0.293 C 
BRANCH   7   8
ATOM      8  O   LEU A   1      33.849 -23.511 -19.418  0.00  0.00    -0.482 OA
ATOM      9  H   LEU A   1      33.961 -24.162 -18.753  0.00  0.00    +0.295 HD
ENDBRANCH   7   8
ENDBRANCH   1   7
BRANCH   1  10
ATOM     10  CB  LEU A   1      34.896 -20.151 -20.491  0.00  0.00    -0.011 C 
BRANCH  10  11
ATOM     11  CG  LEU A   1      34.439 -19.037 -21.455  0.00  0.00    -0.002 C 
ATOM     12  CD1 LEU A   1      34.781 -19.352 -22.912  0.00  0.00    -0.000 C 
ATOM     13  CD2 LEU A   1      35.084 -17.708 -21.051  0.00  0.00    -0.000 C 
ENDBRANCH  10  11
ENDBRANCH   1  10
TORSDOF 5
ENDMDL
MODEL 9
REMARK VINA RESULT:      -4.9     12.213     12.899
REMARK  Name = 6106
REMARK  5 active torsions:
REMARK  status: ('A' for Active; 'I' for Inactive)
REMARK    1  A    between atoms: CA_1  and  N_2
REMARK    2  A    between atoms: CA_1  and  C_7
REMARK    3  A    between atoms: CA_1  and  CB_10
REMARK    4  A    between atoms: C_7  and  O_8
REMARK    5  A    between atoms: CB_10  and  CG_11
REMARK                            x       y       z     vdW  Elec       q    Type
REMARK                         _______ _______ _______ _____ _____    ______ ____
ROOT
ATOM      1  CA  LEU A   1      35.200 -17.541 -23.723  0.00  0.00    +0.036 C 
ENDROOT
BRANCH   1   2
ATOM      2  N   LEU A   1      34.840 -16.336 -22.978  0.00  0.00    +0.389 N 
ATOM      3  H1  LEU A   1      34.843 -16.541 -21.979  0.00  0.00    -0.088 HD
ATOM      4  H2  LEU A   1      33.910 -16.027 -23.259  0.00  0.00    -0.088 HD
ATOM      5  H3  LEU A   1      35.516 -15.599 -23.176  0.00  0.00    -0.088 HD
ENDBRANCH   1   2
BRANCH   1   7
ATOM      6  OXT LEU A   1      34.708 -16.472 -25.865  0.00  0.00    -0.253 OA
ATOM      7  C   LEU A   1      34.579 -17.424 -25.106  0.00  0.00    +0.293 C 
BRANCH   7   8
ATOM      8  O   LEU A   1      33.833 -18.516 -25.420  0.00  0.00    -0.482 OA
ATOM      9  H   LEU A   1      33.617 -18.695 -26.314  0.00  0.00    +0.295 HD
ENDBRANCH   7   8
ENDBRANCH   1   7
BRANCH   1  10
ATOM     10  CB  LEU A   1      34.680 -18.812 -23.033  0.00  0.00    -0.011 C 
BRANCH  10  11
ATOM     11  CG  LEU A   1      34.727 -18.808 -21.491  0.00  0.00    -0.002 C 
ATOM     12  CD1 LEU A   1      36.106 -19.188 -20.950  0.00  0.00    -0.000 C 
ATOM     13  CD2 LEU A   1      33.674 -19.775 -20.941  0.00  0.00    -0.000 C 
ENDBRANCH  10  11
ENDBRANCH   1  10
TORSDOF 5
ENDMDL
