MODEL 1
REMARK VINA RESULT:     -10.6      0.000      0.000
REMARK  Name = 9547939
REMARK  2 active torsions:
REMARK  status: ('A' for Active; 'I' for Inactive)
REMARK    1  A    between atoms: C_3  and  C_11
REMARK    2  A    between atoms: C_8  and  C_20
REMARK                            x       y       z     vdW  Elec       q    Type
REMARK                         _______ _______ _______ _____ _____    ______ ____
ROOT
ATOM      1  N   UNL     1      35.740 -19.712 -21.119  0.00  0.00    -0.313 N 
ATOM      2  C   UNL     1      34.074 -20.748 -20.056  0.00  0.00    +0.015 C 
ATOM      3  C   UNL     1      34.578 -19.288 -21.706  0.00  0.00    +0.048 C 
ATOM      4  C   UNL     1      35.463 -20.605 -20.109  0.00  0.00    +0.048 C 
ATOM      5  C   UNL     1      33.530 -19.910 -21.070  0.00  0.00    +0.016 C 
ATOM      6  C   UNL     1      33.518 -21.617 -19.096  0.00  0.00    +0.004 C 
ATOM      7  C   UNL     1      36.326 -21.289 -19.245  0.00  0.00    +0.015 C 
ATOM      8  C   UNL     1      34.369 -22.308 -18.227  0.00  0.00    +0.031 C 
ATOM      9  C   UNL     1      35.751 -22.146 -18.302  0.00  0.00    +0.004 C 
ATOM     10  H   UNL     1      36.643 -19.421 -21.382  0.00  0.00    +0.152 HD
ENDROOT
BRANCH   3  11
ATOM     11  C   UNL     1      34.574 -18.344 -22.798  0.00  0.00    +0.013 C 
ATOM     12  C   UNL     1      34.524 -16.975 -22.537  0.00  0.00    -0.003 C 
ATOM     13  C   UNL     1      34.621 -18.802 -24.115  0.00  0.00    +0.001 C 
ATOM     14  C   UNL     1      34.519 -16.064 -23.592  0.00  0.00    -0.022 C 
ATOM     15  C   UNL     1      34.616 -17.891 -25.170  0.00  0.00    -0.000 C 
ATOM     16  C   UNL     1      34.565 -16.521 -24.909  0.00  0.00    -0.004 C 
ATOM     17  C   UNL     1      34.463 -14.599 -23.313  0.00  0.00    +0.031 C 
ENDBRANCH   3  11
BRANCH   8  20
ATOM     18  N   UNL     1      32.430 -23.251 -16.994  0.00  0.00    -0.343 N 
ATOM     19  N   UNL     1      34.596 -23.997 -16.531  0.00  0.00    -0.285 NA
ATOM     20  C   UNL     1      33.802 -23.206 -17.232  0.00  0.00    +0.117 C 
ATOM     21  H   UNL     1      32.068 -23.867 -16.317  0.00  0.00    +0.144 HD
ATOM     22  H   UNL     1      31.822 -22.668 -17.504  0.00  0.00    +0.144 HD
ATOM     23  H   UNL     1      34.215 -24.605 -15.858  0.00  0.00    +0.188 HD
ENDBRANCH   8  20
TORSDOF 2
ENDMDL
MODEL 2
REMARK VINA RESULT:     -10.3      2.731      7.699
REMARK  Name = 9547939
REMARK  2 active torsions:
REMARK  status: ('A' for Active; 'I' for Inactive)
REMARK    1  A    between atoms: C_3  and  C_11
REMARK    2  A    between atoms: C_8  and  C_20
REMARK                            x       y       z     vdW  Elec       q    Type
REMARK                         _______ _______ _______ _____ _____    ______ ____
ROOT
ATOM      1  N   UNL     1      34.907 -19.043 -22.895  0.00  0.00    -0.313 N 
ATOM      2  C   UNL     1      34.409 -16.894 -22.565  0.00  0.00    +0.015 C 
ATOM      3  C   UNL     1      34.890 -18.849 -21.540  0.00  0.00    +0.048 C 
ATOM      4  C   UNL     1      34.618 -17.866 -23.547  0.00  0.00    +0.048 C 
ATOM      5  C   UNL     1      34.584 -17.529 -21.304  0.00  0.00    +0.016 C 
ATOM      6  C   UNL     1      34.092 -15.581 -22.968  0.00  0.00    +0.004 C 
ATOM      7  C   UNL     1      34.525 -17.589 -24.916  0.00  0.00    +0.015 C 
ATOM      8  C   UNL     1      33.996 -15.290 -24.333  0.00  0.00    +0.031 C 
ATOM      9  C   UNL     1      34.210 -16.279 -25.291  0.00  0.00    +0.004 C 
ATOM     10  H   UNL     1      35.100 -19.900 -23.340  0.00  0.00    +0.152 HD
ENDROOT
BRANCH   3  11
ATOM     11  C   UNL     1      35.160 -19.920 -20.611  0.00  0.00    +0.013 C 
ATOM     12  C   UNL     1      34.106 -20.649 -20.061  0.00  0.00    -0.003 C 
ATOM     13  C   UNL     1      36.476 -20.227 -20.265  0.00  0.00    +0.001 C 
ATOM     14  C   UNL     1      34.367 -21.683 -19.163  0.00  0.00    -0.022 C 
ATOM     15  C   UNL     1      36.738 -21.261 -19.367  0.00  0.00    -0.000 C 
ATOM     16  C   UNL     1      35.683 -21.990 -18.815  0.00  0.00    -0.004 C 
ATOM     17  C   UNL     1      33.240 -22.462 -18.572  0.00  0.00    +0.031 C 
ENDBRANCH   3  11
BRANCH   8  20
ATOM     18  N   UNL     1      33.997 -12.832 -23.973  0.00  0.00    -0.343 N 
ATOM     19  N   UNL     1      33.044 -13.740 -25.905  0.00  0.00    -0.285 NA
ATOM     20  C   UNL     1      33.669 -13.937 -24.757  0.00  0.00    +0.117 C 
ATOM     21  H   UNL     1      33.767 -11.926 -24.279  0.00  0.00    +0.144 HD
ATOM     22  H   UNL     1      34.460 -12.959 -23.113  0.00  0.00    +0.144 HD
ATOM     23  H   UNL     1      32.822 -12.826 -26.193  0.00  0.00    +0.188 HD
ENDBRANCH   8  20
TORSDOF 2
ENDMDL
MODEL 3
REMARK VINA RESULT:     -10.3      3.199      7.972
REMARK  Name = 9547939
REMARK  2 active torsions:
REMARK  status: ('A' for Active; 'I' for Inactive)
REMARK    1  A    between atoms: C_3  and  C_11
REMARK    2  A    between atoms: C_8  and  C_20
REMARK                            x       y       z     vdW  Elec       q    Type
REMARK                         _______ _______ _______ _____ _____    ______ ____
ROOT
ATOM      1  N   UNL     1      34.585 -17.693 -23.005  0.00  0.00    -0.313 N 
ATOM      2  C   UNL     1      34.445 -15.594 -22.263  0.00  0.00    +0.015 C 
ATOM      3  C   UNL     1      34.887 -17.730 -21.671  0.00  0.00    +0.048 C 
ATOM      4  C   UNL     1      34.312 -16.402 -23.395  0.00  0.00    +0.048 C 
ATOM      5  C   UNL     1      34.808 -16.447 -21.183  0.00  0.00    +0.016 C 
ATOM      6  C   UNL     1      34.216 -14.209 -22.387  0.00  0.00    +0.004 C 
ATOM      7  C   UNL     1      33.959 -15.891 -24.649  0.00  0.00    +0.015 C 
ATOM      8  C   UNL     1      33.864 -13.685 -23.635  0.00  0.00    +0.031 C 
ATOM      9  C   UNL     1      33.738 -14.514 -24.749  0.00  0.00    +0.004 C 
ATOM     10  H   UNL     1      34.566 -18.477 -23.601  0.00  0.00    +0.152 HD
ENDROOT
BRANCH   3  11
ATOM     11  C   UNL     1      35.215 -18.962 -20.995  0.00  0.00    +0.013 C 
ATOM     12  C   UNL     1      34.198 -19.812 -20.561  0.00  0.00    -0.003 C 
ATOM     13  C   UNL     1      36.550 -19.303 -20.777  0.00  0.00    +0.001 C 
ATOM     14  C   UNL     1      34.516 -21.002 -19.908  0.00  0.00    -0.022 C 
ATOM     15  C   UNL     1      36.868 -20.493 -20.123  0.00  0.00    -0.000 C 
ATOM     16  C   UNL     1      35.851 -21.343 -19.688  0.00  0.00    -0.004 C 
ATOM     17  C   UNL     1      33.429 -21.911 -19.443  0.00  0.00    +0.031 C 
ENDBRANCH   3  11
BRANCH   8  20
ATOM     18  N   UNL     1      32.626 -11.614 -23.043  0.00  0.00    -0.343 N 
ATOM     19  N   UNL     1      34.364 -11.542 -24.604  0.00  0.00    -0.285 NA
ATOM     20  C   UNL     1      33.626 -12.256 -23.772  0.00  0.00    +0.117 C 
ATOM     21  H   UNL     1      32.482 -10.647 -23.151  0.00  0.00    +0.144 HD
ATOM     22  H   UNL     1      32.063 -12.129 -22.420  0.00  0.00    +0.144 HD
ATOM     23  H   UNL     1      34.205 -10.576 -24.698  0.00  0.00    +0.188 HD
ENDBRANCH   8  20
TORSDOF 2
ENDMDL
MODEL 4
REMARK VINA RESULT:      -9.8      3.390      8.157
REMARK  Name = 9547939
REMARK  2 active torsions:
REMARK  status: ('A' for Active; 'I' for Inactive)
REMARK    1  A    between atoms: C_3  and  C_11
REMARK    2  A    between atoms: C_8  and  C_20
REMARK                            x       y       z     vdW  Elec       q    Type
REMARK                         _______ _______ _______ _____ _____    ______ ____
ROOT
ATOM      1  N   UNL     1      33.195 -16.495 -20.984  0.00  0.00    -0.313 N 
ATOM      2  C   UNL     1      34.054 -15.582 -22.830  0.00  0.00    +0.015 C 
ATOM      3  C   UNL     1      33.969 -17.458 -21.573  0.00  0.00    +0.048 C 
ATOM      4  C   UNL     1      33.227 -15.338 -21.730  0.00  0.00    +0.048 C 
ATOM      5  C   UNL     1      34.514 -16.923 -22.717  0.00  0.00    +0.016 C 
ATOM      6  C   UNL     1      34.260 -14.547 -23.765  0.00  0.00    +0.004 C 
ATOM      7  C   UNL     1      32.595 -14.107 -21.518  0.00  0.00    +0.015 C 
ATOM      8  C   UNL     1      33.635 -13.312 -23.565  0.00  0.00    +0.031 C 
ATOM      9  C   UNL     1      32.814 -13.097 -22.459  0.00  0.00    +0.004 C 
ATOM     10  H   UNL     1      32.688 -16.612 -20.148  0.00  0.00    +0.152 HD
ENDROOT
BRANCH   3  11
ATOM     11  C   UNL     1      34.117 -18.775 -21.001  0.00  0.00    +0.013 C 
ATOM     12  C   UNL     1      35.389 -19.289 -20.755  0.00  0.00    -0.003 C 
ATOM     13  C   UNL     1      32.986 -19.532 -20.695  0.00  0.00    +0.001 C 
ATOM     14  C   UNL     1      35.531 -20.562 -20.203  0.00  0.00    -0.022 C 
ATOM     15  C   UNL     1      33.128 -20.805 -20.143  0.00  0.00    -0.000 C 
ATOM     16  C   UNL     1      34.401 -21.321 -19.897  0.00  0.00    -0.004 C 
ATOM     17  C   UNL     1      36.892 -21.114 -19.940  0.00  0.00    +0.031 C 
ENDBRANCH   3  11
BRANCH   8  20
ATOM     18  N   UNL     1      33.603 -12.427 -25.886  0.00  0.00    -0.343 N 
ATOM     19  N   UNL     1      34.274 -11.060 -24.113  0.00  0.00    -0.285 NA
ATOM     20  C   UNL     1      33.843 -12.239 -24.526  0.00  0.00    +0.117 C 
ATOM     21  H   UNL     1      33.750 -11.687 -26.518  0.00  0.00    +0.144 HD
ATOM     22  H   UNL     1      33.284 -13.299 -26.214  0.00  0.00    +0.144 HD
ATOM     23  H   UNL     1      34.417 -10.333 -24.760  0.00  0.00    +0.188 HD
ENDBRANCH   8  20
TORSDOF 2
ENDMDL
MODEL 5
REMARK VINA RESULT:      -9.8      7.782      9.580
REMARK  Name = 9547939
REMARK  2 active torsions:
REMARK  status: ('A' for Active; 'I' for Inactive)
REMARK    1  A    between atoms: C_3  and  C_11
REMARK    2  A    between atoms: C_8  and  C_20
REMARK                            x       y       z     vdW  Elec       q    Type
REMARK                         _______ _______ _______ _____ _____    ______ ____
ROOT
ATOM      1  N   UNL     1      32.686 -25.035 -14.072  0.00  0.00    -0.313 N 
ATOM      2  C   UNL     1      31.613 -23.629 -15.433  0.00  0.00    +0.015 C 
ATOM      3  C   UNL     1      33.636 -24.208 -14.608  0.00  0.00    +0.048 C 
ATOM      4  C   UNL     1      31.441 -24.705 -14.559  0.00  0.00    +0.048 C 
ATOM      5  C   UNL     1      33.003 -23.327 -15.454  0.00  0.00    +0.016 C 
ATOM      6  C   UNL     1      30.480 -23.090 -16.076  0.00  0.00    +0.004 C 
ATOM      7  C   UNL     1      30.188 -25.269 -14.293  0.00  0.00    +0.015 C 
ATOM      8  C   UNL     1      29.222 -23.645 -15.820  0.00  0.00    +0.031 C 
ATOM      9  C   UNL     1      29.079 -24.719 -14.943  0.00  0.00    +0.004 C 
ATOM     10  H   UNL     1      32.866 -25.760 -13.432  0.00  0.00    +0.152 HD
ENDROOT
BRANCH   3  11
ATOM     11  C   UNL     1      35.034 -24.330 -14.271  0.00  0.00    +0.013 C 
ATOM     12  C   UNL     1      35.561 -23.601 -13.205  0.00  0.00    -0.003 C 
ATOM     13  C   UNL     1      35.857 -25.179 -15.011  0.00  0.00    +0.001 C 
ATOM     14  C   UNL     1      36.912 -23.719 -12.880  0.00  0.00    -0.022 C 
ATOM     15  C   UNL     1      37.208 -25.297 -14.685  0.00  0.00    -0.000 C 
ATOM     16  C   UNL     1      37.736 -24.567 -13.620  0.00  0.00    -0.004 C 
ATOM     17  C   UNL     1      37.476 -22.938 -11.742  0.00  0.00    +0.031 C 
ENDBRANCH   3  11
BRANCH   8  20
ATOM     18  N   UNL     1      27.137 -22.296 -15.791  0.00  0.00    -0.343 N 
ATOM     19  N   UNL     1      27.829 -23.351 -17.757  0.00  0.00    -0.285 NA
ATOM     20  C   UNL     1      28.048 -23.093 -16.480  0.00  0.00    +0.117 C 
ATOM     21  H   UNL     1      26.349 -21.933 -16.256  0.00  0.00    +0.144 HD
ATOM     22  H   UNL     1      27.280 -22.096 -14.837  0.00  0.00    +0.144 HD
ATOM     23  H   UNL     1      27.036 -22.980 -18.206  0.00  0.00    +0.188 HD
ENDBRANCH   8  20
TORSDOF 2
ENDMDL
MODEL 6
REMARK VINA RESULT:      -9.8      1.282      2.153
REMARK  Name = 9547939
REMARK  2 active torsions:
REMARK  status: ('A' for Active; 'I' for Inactive)
REMARK    1  A    between atoms: C_3  and  C_11
REMARK    2  A    between atoms: C_8  and  C_20
REMARK                            x       y       z     vdW  Elec       q    Type
REMARK                         _______ _______ _______ _____ _____    ______ ____
ROOT
ATOM      1  N   UNL     1      35.572 -18.409 -21.279  0.00  0.00    -0.313 N 
ATOM      2  C   UNL     1      33.990 -19.796 -20.537  0.00  0.00    +0.015 C 
ATOM      3  C   UNL     1      34.370 -17.840 -21.602  0.00  0.00    +0.048 C 
ATOM      4  C   UNL     1      35.371 -19.605 -20.629  0.00  0.00    +0.048 C 
ATOM      5  C   UNL     1      33.372 -18.674 -21.156  0.00  0.00    +0.016 C 
ATOM      6  C   UNL     1      33.508 -20.961 -19.907  0.00  0.00    +0.004 C 
ATOM      7  C   UNL     1      36.296 -20.523 -20.117  0.00  0.00    +0.015 C 
ATOM      8  C   UNL     1      34.421 -21.887 -19.392  0.00  0.00    +0.031 C 
ATOM      9  C   UNL     1      35.794 -21.671 -19.497  0.00  0.00    +0.004 C 
ATOM     10  H   UNL     1      36.453 -18.019 -21.483  0.00  0.00    +0.152 HD
ENDROOT
BRANCH   3  11
ATOM     11  C   UNL     1      34.284 -16.575 -22.293  0.00  0.00    +0.013 C 
ATOM     12  C   UNL     1      34.000 -16.544 -23.658  0.00  0.00    -0.003 C 
ATOM     13  C   UNL     1      34.483 -15.385 -21.594  0.00  0.00    +0.001 C 
ATOM     14  C   UNL     1      33.918 -15.323 -24.326  0.00  0.00    -0.022 C 
ATOM     15  C   UNL     1      34.401 -14.163 -22.262  0.00  0.00    -0.000 C 
ATOM     16  C   UNL     1      34.118 -14.132 -23.628  0.00  0.00    -0.004 C 
ATOM     17  C   UNL     1      33.616 -15.289 -25.786  0.00  0.00    +0.031 C 
ENDBRANCH   3  11
BRANCH   8  20
ATOM     18  N   UNL     1      33.536 -23.082 -17.403  0.00  0.00    -0.343 N 
ATOM     19  N   UNL     1      33.856 -24.223 -19.417  0.00  0.00    -0.285 NA
ATOM     20  C   UNL     1      33.930 -23.091 -18.739  0.00  0.00    +0.117 C 
ATOM     21  H   UNL     1      33.207 -23.908 -16.981  0.00  0.00    +0.144 HD
ATOM     22  H   UNL     1      33.587 -22.249 -16.880  0.00  0.00    +0.144 HD
ATOM     23  H   UNL     1      33.525 -25.039 -18.977  0.00  0.00    +0.188 HD
ENDBRANCH   8  20
TORSDOF 2
ENDMDL
MODEL 7
REMARK VINA RESULT:      -9.7      8.092      9.923
REMARK  Name = 9547939
REMARK  2 active torsions:
REMARK  status: ('A' for Active; 'I' for Inactive)
REMARK    1  A    between atoms: C_3  and  C_11
REMARK    2  A    between atoms: C_8  and  C_20
REMARK                            x       y       z     vdW  Elec       q    Type
REMARK                         _______ _______ _______ _____ _____    ______ ____
ROOT
ATOM      1  N   UNL     1      32.546 -25.100 -13.751  0.00  0.00    -0.313 N 
ATOM      2  C   UNL     1      31.527 -23.568 -15.013  0.00  0.00    +0.015 C 
ATOM      3  C   UNL     1      33.477 -24.132 -14.019  0.00  0.00    +0.048 C 
ATOM      4  C   UNL     1      31.346 -24.782 -14.346  0.00  0.00    +0.048 C 
ATOM      5  C   UNL     1      32.876 -23.170 -14.797  0.00  0.00    +0.016 C 
ATOM      6  C   UNL     1      30.438 -23.010 -15.713  0.00  0.00    +0.004 C 
ATOM      7  C   UNL     1      30.126 -25.469 -14.345  0.00  0.00    +0.015 C 
ATOM      8  C   UNL     1      29.214 -23.686 -15.721  0.00  0.00    +0.031 C 
ATOM      9  C   UNL     1      29.062 -24.897 -15.048  0.00  0.00    +0.004 C 
ATOM     10  H   UNL     1      32.711 -25.907 -13.212  0.00  0.00    +0.152 HD
ENDROOT
BRANCH   3  11
ATOM     11  C   UNL     1      34.828 -24.211 -13.516  0.00  0.00    +0.013 C 
ATOM     12  C   UNL     1      35.884 -24.458 -14.393  0.00  0.00    -0.003 C 
ATOM     13  C   UNL     1      35.075 -24.038 -12.155  0.00  0.00    +0.001 C 
ATOM     14  C   UNL     1      37.189 -24.535 -13.907  0.00  0.00    -0.022 C 
ATOM     15  C   UNL     1      36.380 -24.115 -11.669  0.00  0.00    -0.000 C 
ATOM     16  C   UNL     1      37.437 -24.363 -12.545  0.00  0.00    -0.004 C 
ATOM     17  C   UNL     1      38.319 -24.800 -14.843  0.00  0.00    +0.031 C 
ENDBRANCH   3  11
BRANCH   8  20
ATOM     18  N   UNL     1      27.181 -22.262 -15.814  0.00  0.00    -0.343 N 
ATOM     19  N   UNL     1      27.901 -23.413 -17.716  0.00  0.00    -0.285 NA
ATOM     20  C   UNL     1      28.085 -23.117 -16.441  0.00  0.00    +0.117 C 
ATOM     21  H   UNL     1      26.424 -21.888 -16.321  0.00  0.00    +0.144 HD
ATOM     22  H   UNL     1      27.299 -22.032 -14.864  0.00  0.00    +0.144 HD
ATOM     23  H   UNL     1      27.139 -23.029 -18.206  0.00  0.00    +0.188 HD
ENDBRANCH   8  20
TORSDOF 2
ENDMDL
MODEL 8
REMARK VINA RESULT:      -9.5      7.466      9.604
REMARK  Name = 9547939
REMARK  2 active torsions:
REMARK  status: ('A' for Active; 'I' for Inactive)
REMARK    1  A    between atoms: C_3  and  C_11
REMARK    2  A    between atoms: C_8  and  C_20
REMARK                            x       y       z     vdW  Elec       q    Type
REMARK                         _______ _______ _______ _____ _____    ______ ____
ROOT
ATOM      1  N   UNL     1      34.878 -24.742 -13.056  0.00  0.00    -0.313 N 
ATOM      2  C   UNL     1      36.401 -25.190 -14.623  0.00  0.00    +0.015 C 
ATOM      3  C   UNL     1      34.231 -24.674 -14.260  0.00  0.00    +0.048 C 
ATOM      4  C   UNL     1      36.205 -25.055 -13.247  0.00  0.00    +0.048 C 
ATOM      5  C   UNL     1      35.147 -24.946 -15.249  0.00  0.00    +0.016 C 
ATOM      6  C   UNL     1      37.689 -25.512 -15.096  0.00  0.00    +0.004 C 
ATOM      7  C   UNL     1      37.236 -25.229 -12.316  0.00  0.00    +0.015 C 
ATOM      8  C   UNL     1      38.729 -25.688 -14.177  0.00  0.00    +0.031 C 
ATOM      9  C   UNL     1      38.505 -25.547 -12.809  0.00  0.00    +0.004 C 
ATOM     10  H   UNL     1      34.456 -24.590 -12.179  0.00  0.00    +0.152 HD
ENDROOT
BRANCH   3  11
ATOM     11  C   UNL     1      32.825 -24.362 -14.356  0.00  0.00    +0.013 C 
ATOM     12  C   UNL     1      32.349 -23.613 -15.431  0.00  0.00    -0.003 C 
ATOM     13  C   UNL     1      31.944 -24.810 -13.372  0.00  0.00    +0.001 C 
ATOM     14  C   UNL     1      30.990 -23.311 -15.523  0.00  0.00    -0.022 C 
ATOM     15  C   UNL     1      30.585 -24.508 -13.464  0.00  0.00    -0.000 C 
ATOM     16  C   UNL     1      30.108 -23.759 -14.539  0.00  0.00    -0.004 C 
ATOM     17  C   UNL     1      30.480 -22.510 -16.673  0.00  0.00    +0.031 C 
ENDBRANCH   3  11
BRANCH   8  20
ATOM     18  N   UNL     1      40.984 -26.673 -13.843  0.00  0.00    -0.343 N 
ATOM     19  N   UNL     1      40.416 -25.701 -15.890  0.00  0.00    -0.285 NA
ATOM     20  C   UNL     1      40.062 -26.022 -14.658  0.00  0.00    +0.117 C 
ATOM     21  H   UNL     1      41.881 -26.890 -14.188  0.00  0.00    +0.144 HD
ATOM     22  H   UNL     1      40.740 -26.918 -12.920  0.00  0.00    +0.144 HD
ATOM     23  H   UNL     1      41.317 -25.925 -16.217  0.00  0.00    +0.188 HD
ENDBRANCH   8  20
TORSDOF 2
ENDMDL
MODEL 9
REMARK VINA RESULT:      -9.5      5.262      9.565
REMARK  Name = 9547939
REMARK  2 active torsions:
REMARK  status: ('A' for Active; 'I' for Inactive)
REMARK    1  A    between atoms: C_3  and  C_11
REMARK    2  A    between atoms: C_8  and  C_20
REMARK                            x       y       z     vdW  Elec       q    Type
REMARK                         _______ _______ _______ _____ _____    ______ ____
ROOT
ATOM      1  N   UNL     1      32.676 -14.089 -22.236  0.00  0.00    -0.313 N 
ATOM      2  C   UNL     1      32.995 -12.097 -23.189  0.00  0.00    +0.015 C 
ATOM      3  C   UNL     1      33.549 -14.286 -23.272  0.00  0.00    +0.048 C 
ATOM      4  C   UNL     1      32.321 -12.761 -22.162  0.00  0.00    +0.048 C 
ATOM      5  C   UNL     1      33.766 -13.073 -23.881  0.00  0.00    +0.016 C 
ATOM      6  C   UNL     1      32.805 -10.708 -23.338  0.00  0.00    +0.004 C 
ATOM      7  C   UNL     1      31.463 -12.103 -21.272  0.00  0.00    +0.015 C 
ATOM      8  C   UNL     1      31.950 -10.038 -22.457  0.00  0.00    +0.031 C 
ATOM      9  C   UNL     1      31.290 -10.726 -21.441  0.00  0.00    +0.004 C 
ATOM     10  H   UNL     1      32.350 -14.794 -21.632  0.00  0.00    +0.152 HD
ENDROOT
BRANCH   3  11
ATOM     11  C   UNL     1      34.086 -15.590 -23.581  0.00  0.00    +0.013 C 
ATOM     12  C   UNL     1      34.692 -16.349 -22.580  0.00  0.00    -0.003 C 
ATOM     13  C   UNL     1      33.998 -16.090 -24.880  0.00  0.00    +0.001 C 
ATOM     14  C   UNL     1      35.212 -17.608 -22.879  0.00  0.00    -0.022 C 
ATOM     15  C   UNL     1      34.519 -17.349 -25.179  0.00  0.00    -0.000 C 
ATOM     16  C   UNL     1      35.126 -18.108 -24.179  0.00  0.00    -0.004 C 
ATOM     17  C   UNL     1      35.862 -18.420 -21.810  0.00  0.00    +0.031 C 
ENDBRANCH   3  11
BRANCH   8  20
ATOM     18  N   UNL     1      32.242  -7.703 -21.663  0.00  0.00    -0.343 N 
ATOM     19  N   UNL     1      31.083  -8.137 -23.645  0.00  0.00    -0.285 NA
ATOM     20  C   UNL     1      31.749  -8.604 -22.604  0.00  0.00    +0.117 C 
ATOM     21  H   UNL     1      32.094  -6.737 -21.782  0.00  0.00    +0.144 HD
ATOM     22  H   UNL     1      32.738  -8.032 -20.878  0.00  0.00    +0.144 HD
ATOM     23  H   UNL     1      30.945  -7.168 -23.747  0.00  0.00    +0.188 HD
ENDBRANCH   8  20
TORSDOF 2
ENDMDL
