MODEL 1
REMARK VINA RESULT:      -6.3      0.000      0.000
REMARK  Name = 2761171
REMARK  3 active torsions:
REMARK  status: ('A' for Active; 'I' for Inactive)
REMARK    1  A    between atoms: C_2  and  C_12
REMARK    2  A    between atoms: C_4  and  C_8
REMARK    3  A    between atoms: C_8  and  N_9
REMARK                            x       y       z     vdW  Elec       q    Type
REMARK                         _______ _______ _______ _____ _____    ______ ____
ROOT
ATOM      1  N   UNL     1      35.614 -20.194 -20.082  0.00  0.00    -0.248 NA
ATOM      2  C   UNL     1      34.407 -20.043 -20.672  0.00  0.00    +0.059 C 
ATOM      3  C   UNL     1      34.184 -19.255 -21.790  0.00  0.00    +0.016 C 
ATOM      4  C   UNL     1      35.268 -18.578 -22.336  0.00  0.00    +0.022 C 
ATOM      5  C   UNL     1      36.526 -18.709 -21.756  0.00  0.00    +0.022 C 
ATOM      6  C   UNL     1      36.645 -19.522 -20.641  0.00  0.00    +0.099 C 
ENDROOT
BRANCH   4   8
ATOM      7  S   UNL     1      34.403 -18.243 -24.971  0.00  0.00    -0.035 S 
ATOM      8  C   UNL     1      35.090 -17.737 -23.509  0.00  0.00    +0.078 C 
BRANCH   8   9
ATOM      9  N   UNL     1      35.519 -16.421 -23.393  0.00  0.00    -0.352 N 
ATOM     10  H   UNL     1      36.452 -16.188 -23.600  0.00  0.00    +0.143 HD
ATOM     11  H   UNL     1      34.889 -15.722 -23.103  0.00  0.00    +0.143 HD
ENDBRANCH   8   9
ENDBRANCH   4   8
BRANCH   2  12
ATOM     12  C   UNL     1      33.266 -20.783 -20.059  0.00  0.00    +0.046 C 
ATOM     13  C   UNL     1      33.730 -21.974 -19.225  0.00  0.00    +0.007 C 
ENDBRANCH   2  12
TORSDOF 3
ENDMDL
MODEL 2
REMARK VINA RESULT:      -6.1      1.946      2.602
REMARK  Name = 2761171
REMARK  3 active torsions:
REMARK  status: ('A' for Active; 'I' for Inactive)
REMARK    1  A    between atoms: C_2  and  C_12
REMARK    2  A    between atoms: C_4  and  C_8
REMARK    3  A    between atoms: C_8  and  N_9
REMARK                            x       y       z     vdW  Elec       q    Type
REMARK                         _______ _______ _______ _____ _____    ______ ____
ROOT
ATOM      1  N   UNL     1      34.270 -21.188 -19.736  0.00  0.00    -0.248 NA
ATOM      2  C   UNL     1      35.536 -20.797 -20.002  0.00  0.00    +0.059 C 
ATOM      3  C   UNL     1      35.861 -19.689 -20.770  0.00  0.00    +0.016 C 
ATOM      4  C   UNL     1      34.820 -18.935 -21.298  0.00  0.00    +0.022 C 
ATOM      5  C   UNL     1      33.503 -19.306 -21.045  0.00  0.00    +0.022 C 
ATOM      6  C   UNL     1      33.283 -20.430 -20.265  0.00  0.00    +0.099 C 
ENDROOT
BRANCH   4   8
ATOM      7  S   UNL     1      34.592 -16.190 -21.757  0.00  0.00    -0.035 S 
ATOM      8  C   UNL     1      35.104 -17.764 -22.110  0.00  0.00    +0.078 C 
BRANCH   8   9
ATOM      9  N   UNL     1      35.860 -17.979 -23.255  0.00  0.00    -0.352 N 
ATOM     10  H   UNL     1      35.513 -18.555 -23.974  0.00  0.00    +0.143 HD
ATOM     11  H   UNL     1      36.744 -17.555 -23.349  0.00  0.00    +0.143 HD
ENDBRANCH   8   9
ENDBRANCH   4   8
BRANCH   2  12
ATOM     12  C   UNL     1      36.629 -21.630 -19.420  0.00  0.00    +0.046 C 
ATOM     13  C   UNL     1      36.586 -21.657 -17.895  0.00  0.00    +0.007 C 
ENDBRANCH   2  12
TORSDOF 3
ENDMDL
MODEL 3
REMARK VINA RESULT:      -6.1      2.281      2.842
REMARK  Name = 2761171
REMARK  3 active torsions:
REMARK  status: ('A' for Active; 'I' for Inactive)
REMARK    1  A    between atoms: C_2  and  C_12
REMARK    2  A    between atoms: C_4  and  C_8
REMARK    3  A    between atoms: C_8  and  N_9
REMARK                            x       y       z     vdW  Elec       q    Type
REMARK                         _______ _______ _______ _____ _____    ______ ____
ROOT
ATOM      1  N   UNL     1      34.906 -19.387 -22.946  0.00  0.00    -0.248 NA
ATOM      2  C   UNL     1      34.572 -18.984 -21.699  0.00  0.00    +0.059 C 
ATOM      3  C   UNL     1      34.399 -17.658 -21.333  0.00  0.00    +0.016 C 
ATOM      4  C   UNL     1      34.580 -16.685 -22.309  0.00  0.00    +0.022 C 
ATOM      5  C   UNL     1      34.924 -17.061 -23.603  0.00  0.00    +0.022 C 
ATOM      6  C   UNL     1      35.073 -18.413 -23.868  0.00  0.00    +0.099 C 
ENDROOT
BRANCH   4   8
ATOM      7  S   UNL     1      34.046 -14.058 -23.092  0.00  0.00    -0.035 S 
ATOM      8  C   UNL     1      34.411 -15.279 -21.979  0.00  0.00    +0.078 C 
BRANCH   8   9
ATOM      9  N   UNL     1      34.561 -14.940 -20.640  0.00  0.00    -0.352 N 
ATOM     10  H   UNL     1      34.223 -15.541 -19.939  0.00  0.00    +0.143 HD
ATOM     11  H   UNL     1      35.006 -14.097 -20.393  0.00  0.00    +0.143 HD
ENDBRANCH   8   9
ENDBRANCH   4   8
BRANCH   2  12
ATOM     12  C   UNL     1      34.386 -20.056 -20.677  0.00  0.00    +0.046 C 
ATOM     13  C   UNL     1      32.917 -20.268 -20.323  0.00  0.00    +0.007 C 
ENDBRANCH   2  12
TORSDOF 3
ENDMDL
MODEL 4
REMARK VINA RESULT:      -6.0      2.408      4.516
REMARK  Name = 2761171
REMARK  3 active torsions:
REMARK  status: ('A' for Active; 'I' for Inactive)
REMARK    1  A    between atoms: C_2  and  C_12
REMARK    2  A    between atoms: C_4  and  C_8
REMARK    3  A    between atoms: C_8  and  N_9
REMARK                            x       y       z     vdW  Elec       q    Type
REMARK                         _______ _______ _______ _____ _____    ______ ____
ROOT
ATOM      1  N   UNL     1      34.867 -16.848 -23.777  0.00  0.00    -0.248 NA
ATOM      2  C   UNL     1      34.663 -16.528 -22.480  0.00  0.00    +0.059 C 
ATOM      3  C   UNL     1      34.579 -17.458 -21.455  0.00  0.00    +0.016 C 
ATOM      4  C   UNL     1      34.710 -18.802 -21.784  0.00  0.00    +0.022 C 
ATOM      5  C   UNL     1      34.920 -19.171 -23.109  0.00  0.00    +0.022 C 
ATOM      6  C   UNL     1      34.991 -18.165 -24.059  0.00  0.00    +0.099 C 
ENDROOT
BRANCH   4   8
ATOM      7  S   UNL     1      33.201 -20.573 -20.239  0.00  0.00    -0.035 S 
ATOM      8  C   UNL     1      34.628 -19.819 -20.749  0.00  0.00    +0.078 C 
BRANCH   8   9
ATOM      9  N   UNL     1      35.827 -20.186 -20.151  0.00  0.00    -0.352 N 
ATOM     10  H   UNL     1      36.332 -19.530 -19.618  0.00  0.00    +0.143 HD
ATOM     11  H   UNL     1      36.171 -21.101 -20.260  0.00  0.00    +0.143 HD
ENDBRANCH   8   9
ENDBRANCH   4   8
BRANCH   2  12
ATOM     12  C   UNL     1      34.526 -15.076 -22.163  0.00  0.00    +0.046 C 
ATOM     13  C   UNL     1      34.242 -14.831 -20.684  0.00  0.00    +0.007 C 
ENDBRANCH   2  12
TORSDOF 3
ENDMDL
MODEL 5
REMARK VINA RESULT:      -6.0      2.968      4.126
REMARK  Name = 2761171
REMARK  3 active torsions:
REMARK  status: ('A' for Active; 'I' for Inactive)
REMARK    1  A    between atoms: C_2  and  C_12
REMARK    2  A    between atoms: C_4  and  C_8
REMARK    3  A    between atoms: C_8  and  N_9
REMARK                            x       y       z     vdW  Elec       q    Type
REMARK                         _______ _______ _______ _____ _____    ______ ____
ROOT
ATOM      1  N   UNL     1      35.004 -16.825 -20.977  0.00  0.00    -0.248 NA
ATOM      2  C   UNL     1      34.995 -17.162 -22.286  0.00  0.00    +0.059 C 
ATOM      3  C   UNL     1      34.625 -16.300 -23.307  0.00  0.00    +0.016 C 
ATOM      4  C   UNL     1      34.238 -15.010 -22.961  0.00  0.00    +0.022 C 
ATOM      5  C   UNL     1      34.235 -14.626 -21.623  0.00  0.00    +0.022 C 
ATOM      6  C   UNL     1      34.623 -15.563 -20.679  0.00  0.00    +0.099 C 
ENDROOT
BRANCH   4   8
ATOM      7  S   UNL     1      33.102 -14.482 -25.457  0.00  0.00    -0.035 S 
ATOM      8  C   UNL     1      33.839 -14.066 -23.991  0.00  0.00    +0.078 C 
BRANCH   8   9
ATOM      9  N   UNL     1      34.088 -12.725 -23.726  0.00  0.00    -0.352 N 
ATOM     10  H   UNL     1      35.012 -12.386 -23.724  0.00  0.00    +0.143 HD
ATOM     11  H   UNL     1      33.339 -12.113 -23.540  0.00  0.00    +0.143 HD
ENDBRANCH   8   9
ENDBRANCH   4   8
BRANCH   2  12
ATOM     12  C   UNL     1      35.415 -18.554 -22.621  0.00  0.00    +0.046 C 
ATOM     13  C   UNL     1      34.915 -18.995 -23.994  0.00  0.00    +0.007 C 
ENDBRANCH   2  12
TORSDOF 3
ENDMDL
MODEL 6
REMARK VINA RESULT:      -6.0      3.793      6.059
REMARK  Name = 2761171
REMARK  3 active torsions:
REMARK  status: ('A' for Active; 'I' for Inactive)
REMARK    1  A    between atoms: C_2  and  C_12
REMARK    2  A    between atoms: C_4  and  C_8
REMARK    3  A    between atoms: C_8  and  N_9
REMARK                            x       y       z     vdW  Elec       q    Type
REMARK                         _______ _______ _______ _____ _____    ______ ____
ROOT
ATOM      1  N   UNL     1      33.987 -16.315 -25.906  0.00  0.00    -0.248 NA
ATOM      2  C   UNL     1      33.550 -15.326 -25.095  0.00  0.00    +0.059 C 
ATOM      3  C   UNL     1      33.770 -15.291 -23.726  0.00  0.00    +0.016 C 
ATOM      4  C   UNL     1      34.483 -16.339 -23.156  0.00  0.00    +0.022 C 
ATOM      5  C   UNL     1      34.949 -17.375 -23.959  0.00  0.00    +0.022 C 
ATOM      6  C   UNL     1      34.677 -17.316 -25.316  0.00  0.00    +0.099 C 
ENDROOT
BRANCH   4   8
ATOM      7  S   UNL     1      34.370 -15.091 -20.659  0.00  0.00    -0.035 S 
ATOM      8  C   UNL     1      34.742 -16.353 -21.725  0.00  0.00    +0.078 C 
BRANCH   8   9
ATOM      9  N   UNL     1      35.334 -17.503 -21.218  0.00  0.00    -0.352 N 
ATOM     10  H   UNL     1      34.814 -18.115 -20.650  0.00  0.00    +0.143 HD
ATOM     11  H   UNL     1      36.274 -17.705 -21.429  0.00  0.00    +0.143 HD
ENDBRANCH   8   9
ENDBRANCH   4   8
BRANCH   2  12
ATOM     12  C   UNL     1      32.788 -14.218 -25.741  0.00  0.00    +0.046 C 
ATOM     13  C   UNL     1      33.412 -13.781 -27.064  0.00  0.00    +0.007 C 
ENDBRANCH   2  12
TORSDOF 3
ENDMDL
MODEL 7
REMARK VINA RESULT:      -5.9      4.495      5.990
REMARK  Name = 2761171
REMARK  3 active torsions:
REMARK  status: ('A' for Active; 'I' for Inactive)
REMARK    1  A    between atoms: C_2  and  C_12
REMARK    2  A    between atoms: C_4  and  C_8
REMARK    3  A    between atoms: C_8  and  N_9
REMARK                            x       y       z     vdW  Elec       q    Type
REMARK                         _______ _______ _______ _____ _____    ______ ____
ROOT
ATOM      1  N   UNL     1      33.781 -16.494 -25.808  0.00  0.00    -0.248 NA
ATOM      2  C   UNL     1      34.278 -16.371 -24.557  0.00  0.00    +0.059 C 
ATOM      3  C   UNL     1      34.149 -15.230 -23.780  0.00  0.00    +0.016 C 
ATOM      4  C   UNL     1      33.467 -14.147 -24.323  0.00  0.00    +0.022 C 
ATOM      5  C   UNL     1      32.941 -14.236 -25.608  0.00  0.00    +0.022 C 
ATOM      6  C   UNL     1      33.124 -15.421 -26.302  0.00  0.00    +0.099 C 
ENDROOT
BRANCH   4   8
ATOM      7  S   UNL     1      32.224 -12.729 -22.262  0.00  0.00    -0.035 S 
ATOM      8  C   UNL     1      33.303 -12.926 -23.552  0.00  0.00    +0.078 C 
BRANCH   8   9
ATOM      9  N   UNL     1      34.109 -11.855 -23.917  0.00  0.00    -0.352 N 
ATOM     10  H   UNL     1      34.232 -11.634 -24.868  0.00  0.00    +0.143 HD
ATOM     11  H   UNL     1      34.557 -11.317 -23.225  0.00  0.00    +0.143 HD
ENDBRANCH   8   9
ENDBRANCH   4   8
BRANCH   2  12
ATOM     12  C   UNL     1      35.004 -17.552 -24.007  0.00  0.00    +0.046 C 
ATOM     13  C   UNL     1      34.512 -18.866 -24.607  0.00  0.00    +0.007 C 
ENDBRANCH   2  12
TORSDOF 3
ENDMDL
MODEL 8
REMARK VINA RESULT:      -5.9      2.761      3.632
REMARK  Name = 2761171
REMARK  3 active torsions:
REMARK  status: ('A' for Active; 'I' for Inactive)
REMARK    1  A    between atoms: C_2  and  C_12
REMARK    2  A    between atoms: C_4  and  C_8
REMARK    3  A    between atoms: C_8  and  N_9
REMARK                            x       y       z     vdW  Elec       q    Type
REMARK                         _______ _______ _______ _____ _____    ______ ____
ROOT
ATOM      1  N   UNL     1      35.584 -22.486 -17.952  0.00  0.00    -0.248 NA
ATOM      2  C   UNL     1      34.247 -22.486 -18.153  0.00  0.00    +0.059 C 
ATOM      3  C   UNL     1      33.608 -21.726 -19.121  0.00  0.00    +0.016 C 
ATOM      4  C   UNL     1      34.392 -20.913 -19.931  0.00  0.00    +0.022 C 
ATOM      5  C   UNL     1      35.771 -20.886 -19.754  0.00  0.00    +0.022 C 
ATOM      6  C   UNL     1      36.313 -21.684 -18.760  0.00  0.00    +0.099 C 
ENDROOT
BRANCH   4   8
ATOM      7  S   UNL     1      34.612 -19.254 -22.167  0.00  0.00    -0.035 S 
ATOM      8  C   UNL     1      33.773 -20.094 -20.961  0.00  0.00    +0.078 C 
BRANCH   8   9
ATOM      9  N   UNL     1      32.386 -20.016 -20.934  0.00  0.00    -0.352 N 
ATOM     10  H   UNL     1      31.939 -19.148 -21.055  0.00  0.00    +0.143 HD
ATOM     11  H   UNL     1      31.850 -20.830 -20.794  0.00  0.00    +0.143 HD
ENDBRANCH   8   9
ENDBRANCH   4   8
BRANCH   2  12
ATOM     12  C   UNL     1      33.437 -23.370 -17.265  0.00  0.00    +0.046 C 
ATOM     13  C   UNL     1      34.107 -23.602 -15.913  0.00  0.00    +0.007 C 
ENDBRANCH   2  12
TORSDOF 3
ENDMDL
MODEL 9
REMARK VINA RESULT:      -5.8      5.607      7.569
REMARK  Name = 2761171
REMARK  3 active torsions:
REMARK  status: ('A' for Active; 'I' for Inactive)
REMARK    1  A    between atoms: C_2  and  C_12
REMARK    2  A    between atoms: C_4  and  C_8
REMARK    3  A    between atoms: C_8  and  N_9
REMARK                            x       y       z     vdW  Elec       q    Type
REMARK                         _______ _______ _______ _____ _____    ______ ____
ROOT
ATOM      1  N   UNL     1      34.925 -23.041 -17.152  0.00  0.00    -0.248 NA
ATOM      2  C   UNL     1      33.917 -22.694 -17.984  0.00  0.00    +0.059 C 
ATOM      3  C   UNL     1      32.574 -22.763 -17.646  0.00  0.00    +0.016 C 
ATOM      4  C   UNL     1      32.246 -23.219 -16.374  0.00  0.00    +0.022 C 
ATOM      5  C   UNL     1      33.256 -23.585 -15.491  0.00  0.00    +0.022 C 
ATOM      6  C   UNL     1      34.567 -23.478 -15.924  0.00  0.00    +0.099 C 
ENDROOT
BRANCH   4   8
ATOM      7  S   UNL     1      30.301 -24.067 -14.558  0.00  0.00    -0.035 S 
ATOM      8  C   UNL     1      30.853 -23.312 -15.969  0.00  0.00    +0.078 C 
BRANCH   8   9
ATOM      9  N   UNL     1      29.924 -22.724 -16.818  0.00  0.00    -0.352 N 
ATOM     10  H   UNL     1      29.185 -23.260 -17.186  0.00  0.00    +0.143 HD
ATOM     11  H   UNL     1      30.006 -21.771 -17.052  0.00  0.00    +0.143 HD
ENDBRANCH   8   9
ENDBRANCH   4   8
BRANCH   2  12
ATOM     12  C   UNL     1      34.306 -22.210 -19.341  0.00  0.00    +0.046 C 
ATOM     13  C   UNL     1      33.431 -21.053 -19.815  0.00  0.00    +0.007 C 
ENDBRANCH   2  12
TORSDOF 3
ENDMDL
