MODEL 1
REMARK VINA RESULT:      -7.6      0.000      0.000
REMARK  Name = 10257
REMARK  4 active torsions:
REMARK  status: ('A' for Active; 'I' for Inactive)
REMARK    1  A    between atoms: C_2  and  C_13
REMARK    2  A    between atoms: C_8  and  O_11
REMARK    3  A    between atoms: C_13  and  C_14
REMARK    4  A    between atoms: C_14  and  N_15
REMARK                            x       y       z     vdW  Elec       q    Type
REMARK                         _______ _______ _______ _____ _____    ______ ____
ROOT
ATOM      1  N   UNL     1      32.678 -20.476 -20.624  0.00  0.00    -0.312 N 
ATOM      2  C   UNL     1      34.620 -19.564 -21.194  0.00  0.00    -0.008 C 
ATOM      3  C   UNL     1      34.862 -20.520 -20.167  0.00  0.00    +0.014 C 
ATOM      4  C   UNL     1      33.628 -21.077 -19.828  0.00  0.00    +0.048 C 
ATOM      5  C   UNL     1      33.269 -19.561 -21.454  0.00  0.00    +0.058 C 
ATOM      6  C   UNL     1      36.015 -20.965 -19.493  0.00  0.00    +0.038 C 
ATOM      7  C   UNL     1      33.488 -22.061 -18.843  0.00  0.00    +0.018 C 
ATOM      8  C   UNL     1      35.892 -21.949 -18.505  0.00  0.00    +0.134 C 
ATOM      9  C   UNL     1      34.647 -22.487 -18.187  0.00  0.00    +0.038 C 
ATOM     10  H   UNL     1      31.715 -20.676 -20.601  0.00  0.00    +0.152 HD
ENDROOT
BRANCH   8  11
ATOM     11  O   UNL     1      37.004 -22.384 -17.848  0.00  0.00    -0.506 OA
ATOM     12  H   UNL     1      36.960 -23.148 -17.308  0.00  0.00    +0.292 HD
ENDBRANCH   8  11
BRANCH   2  13
ATOM     13  C   UNL     1      35.630 -18.724 -21.868  0.00  0.00    +0.005 C 
BRANCH  13  14
ATOM     14  C   UNL     1      35.396 -18.603 -23.385  0.00  0.00    -0.073 C 
BRANCH  14  15
ATOM     15  N   UNL     1      35.493 -17.220 -23.842  0.00  0.00    +0.384 N 
ATOM     16  C   UNL     1      35.031 -16.301 -22.801  0.00  0.00    -0.101 C 
ATOM     17  C   UNL     1      34.719 -17.029 -25.069  0.00  0.00    -0.101 C 
ATOM     18  H   UNL     1      36.472 -17.018 -24.042  0.00  0.00    -0.080 HD
ENDBRANCH  14  15
ENDBRANCH  13  14
ENDBRANCH   2  13
TORSDOF 4
ENDMDL
MODEL 2
REMARK VINA RESULT:      -7.5      1.881      2.527
REMARK  Name = 10257
REMARK  4 active torsions:
REMARK  status: ('A' for Active; 'I' for Inactive)
REMARK    1  A    between atoms: C_2  and  C_13
REMARK    2  A    between atoms: C_8  and  O_11
REMARK    3  A    between atoms: C_13  and  C_14
REMARK    4  A    between atoms: C_14  and  N_15
REMARK                            x       y       z     vdW  Elec       q    Type
REMARK                         _______ _______ _______ _____ _____    ______ ____
ROOT
ATOM      1  N   UNL     1      37.204 -19.683 -20.673  0.00  0.00    -0.312 N 
ATOM      2  C   UNL     1      35.335 -18.873 -21.557  0.00  0.00    -0.008 C 
ATOM      3  C   UNL     1      34.987 -19.937 -20.677  0.00  0.00    +0.014 C 
ATOM      4  C   UNL     1      36.177 -20.427 -20.136  0.00  0.00    +0.048 C 
ATOM      5  C   UNL     1      36.705 -18.741 -21.532  0.00  0.00    +0.058 C 
ATOM      6  C   UNL     1      33.771 -20.530 -20.288  0.00  0.00    +0.038 C 
ATOM      7  C   UNL     1      36.212 -21.487 -19.223  0.00  0.00    +0.018 C 
ATOM      8  C   UNL     1      33.788 -21.591 -19.375  0.00  0.00    +0.134 C 
ATOM      9  C   UNL     1      34.992 -22.060 -18.852  0.00  0.00    +0.038 C 
ATOM     10  H   UNL     1      38.158 -19.810 -20.468  0.00  0.00    +0.152 HD
ENDROOT
BRANCH   8  11
ATOM     11  O   UNL     1      32.615 -22.171 -18.996  0.00  0.00    -0.506 OA
ATOM     12  H   UNL     1      32.176 -22.762 -19.575  0.00  0.00    +0.292 HD
ENDBRANCH   8  11
BRANCH   2  13
ATOM     13  C   UNL     1      34.403 -18.053 -22.355  0.00  0.00    +0.005 C 
BRANCH  13  14
ATOM     14  C   UNL     1      35.052 -16.768 -22.902  0.00  0.00    -0.073 C 
BRANCH  14  15
ATOM     15  N   UNL     1      34.911 -16.661 -24.351  0.00  0.00    +0.384 N 
ATOM     16  C   UNL     1      33.901 -15.660 -24.697  0.00  0.00    -0.101 C 
ATOM     17  C   UNL     1      34.561 -17.958 -24.930  0.00  0.00    -0.101 C 
ATOM     18  H   UNL     1      35.807 -16.365 -24.737  0.00  0.00    -0.080 HD
ENDBRANCH  14  15
ENDBRANCH  13  14
ENDBRANCH   2  13
TORSDOF 4
ENDMDL
MODEL 3
REMARK VINA RESULT:      -7.4      2.094      2.878
REMARK  Name = 10257
REMARK  4 active torsions:
REMARK  status: ('A' for Active; 'I' for Inactive)
REMARK    1  A    between atoms: C_2  and  C_13
REMARK    2  A    between atoms: C_8  and  O_11
REMARK    3  A    between atoms: C_13  and  C_14
REMARK    4  A    between atoms: C_14  and  N_15
REMARK                            x       y       z     vdW  Elec       q    Type
REMARK                         _______ _______ _______ _____ _____    ______ ____
ROOT
ATOM      1  N   UNL     1      37.124 -19.640 -20.680  0.00  0.00    -0.312 N 
ATOM      2  C   UNL     1      35.224 -18.816 -21.480  0.00  0.00    -0.008 C 
ATOM      3  C   UNL     1      34.910 -19.911 -20.626  0.00  0.00    +0.014 C 
ATOM      4  C   UNL     1      36.119 -20.409 -20.138  0.00  0.00    +0.048 C 
ATOM      5  C   UNL     1      36.593 -18.674 -21.493  0.00  0.00    +0.058 C 
ATOM      6  C   UNL     1      33.710 -20.525 -20.221  0.00  0.00    +0.038 C 
ATOM      7  C   UNL     1      36.188 -21.498 -19.261  0.00  0.00    +0.018 C 
ATOM      8  C   UNL     1      33.762 -21.615 -19.344  0.00  0.00    +0.134 C 
ATOM      9  C   UNL     1      34.984 -22.092 -18.873  0.00  0.00    +0.038 C 
ATOM     10  H   UNL     1      38.085 -19.767 -20.509  0.00  0.00    +0.152 HD
ENDROOT
BRANCH   8  11
ATOM     11  O   UNL     1      32.604 -22.216 -18.948  0.00  0.00    -0.506 OA
ATOM     12  H   UNL     1      31.892 -22.301 -19.550  0.00  0.00    +0.292 HD
ENDBRANCH   8  11
BRANCH   2  13
ATOM     13  C   UNL     1      34.263 -17.977 -22.223  0.00  0.00    +0.005 C 
BRANCH  13  14
ATOM     14  C   UNL     1      34.841 -16.603 -22.612  0.00  0.00    -0.073 C 
BRANCH  14  15
ATOM     15  N   UNL     1      34.075 -15.506 -22.031  0.00  0.00    +0.384 N 
ATOM     16  C   UNL     1      34.239 -14.287 -22.825  0.00  0.00    -0.101 C 
ATOM     17  C   UNL     1      34.485 -15.270 -20.646  0.00  0.00    -0.101 C 
ATOM     18  H   UNL     1      33.089 -15.767 -22.036  0.00  0.00    -0.080 HD
ENDBRANCH  14  15
ENDBRANCH  13  14
ENDBRANCH   2  13
TORSDOF 4
ENDMDL
MODEL 4
REMARK VINA RESULT:      -7.3      3.567      6.807
REMARK  Name = 10257
REMARK  4 active torsions:
REMARK  status: ('A' for Active; 'I' for Inactive)
REMARK    1  A    between atoms: C_2  and  C_13
REMARK    2  A    between atoms: C_8  and  O_11
REMARK    3  A    between atoms: C_13  and  C_14
REMARK    4  A    between atoms: C_14  and  N_15
REMARK                            x       y       z     vdW  Elec       q    Type
REMARK                         _______ _______ _______ _____ _____    ______ ____
ROOT
ATOM      1  N   UNL     1      34.195 -14.996 -21.278  0.00  0.00    -0.312 N 
ATOM      2  C   UNL     1      34.975 -16.881 -22.156  0.00  0.00    -0.008 C 
ATOM      3  C   UNL     1      34.390 -16.111 -23.201  0.00  0.00    +0.014 C 
ATOM      4  C   UNL     1      33.909 -14.935 -22.624  0.00  0.00    +0.048 C 
ATOM      5  C   UNL     1      34.840 -16.169 -20.986  0.00  0.00    +0.058 C 
ATOM      6  C   UNL     1      34.225 -16.303 -24.586  0.00  0.00    +0.038 C 
ATOM      7  C   UNL     1      33.266 -13.937 -23.365  0.00  0.00    +0.018 C 
ATOM      8  C   UNL     1      33.584 -15.314 -25.342  0.00  0.00    +0.134 C 
ATOM      9  C   UNL     1      33.113 -14.150 -24.738  0.00  0.00    +0.038 C 
ATOM     10  H   UNL     1      33.969 -14.299 -20.622  0.00  0.00    +0.152 HD
ENDROOT
BRANCH   8  11
ATOM     11  O   UNL     1      33.419 -15.495 -26.683  0.00  0.00    -0.506 OA
ATOM     12  H   UNL     1      33.184 -14.769 -27.227  0.00  0.00    +0.292 HD
ENDBRANCH   8  11
BRANCH   2  13
ATOM     13  C   UNL     1      35.615 -18.204 -22.291  0.00  0.00    +0.005 C 
BRANCH  13  14
ATOM     14  C   UNL     1      34.620 -19.370 -22.143  0.00  0.00    -0.073 C 
BRANCH  14  15
ATOM     15  N   UNL     1      34.335 -19.667 -20.742  0.00  0.00    +0.384 N 
ATOM     16  C   UNL     1      35.255 -20.687 -20.236  0.00  0.00    -0.101 C 
ATOM     17  C   UNL     1      32.950 -20.108 -20.582  0.00  0.00    -0.101 C 
ATOM     18  H   UNL     1      34.468 -18.813 -20.202  0.00  0.00    -0.080 HD
ENDBRANCH  14  15
ENDBRANCH  13  14
ENDBRANCH   2  13
TORSDOF 4
ENDMDL
MODEL 5
REMARK VINA RESULT:      -7.2      3.593      5.473
REMARK  Name = 10257
REMARK  4 active torsions:
REMARK  status: ('A' for Active; 'I' for Inactive)
REMARK    1  A    between atoms: C_2  and  C_13
REMARK    2  A    between atoms: C_8  and  O_11
REMARK    3  A    between atoms: C_13  and  C_14
REMARK    4  A    between atoms: C_14  and  N_15
REMARK                            x       y       z     vdW  Elec       q    Type
REMARK                         _______ _______ _______ _____ _____    ______ ____
ROOT
ATOM      1  N   UNL     1      34.025 -16.853 -25.319  0.00  0.00    -0.312 N 
ATOM      2  C   UNL     1      34.193 -15.275 -23.766  0.00  0.00    -0.008 C 
ATOM      3  C   UNL     1      34.636 -16.504 -23.201  0.00  0.00    +0.014 C 
ATOM      4  C   UNL     1      34.520 -17.477 -24.196  0.00  0.00    +0.048 C 
ATOM      5  C   UNL     1      33.824 -15.521 -25.068  0.00  0.00    +0.058 C 
ATOM      6  C   UNL     1      35.127 -16.883 -21.937  0.00  0.00    +0.038 C 
ATOM      7  C   UNL     1      34.870 -18.816 -23.988  0.00  0.00    +0.018 C 
ATOM      8  C   UNL     1      35.482 -18.218 -21.713  0.00  0.00    +0.134 C 
ATOM      9  C   UNL     1      35.354 -19.168 -22.724  0.00  0.00    +0.038 C 
ATOM     10  H   UNL     1      33.841 -17.299 -26.176  0.00  0.00    +0.152 HD
ENDROOT
BRANCH   8  11
ATOM     11  O   UNL     1      35.955 -18.592 -20.491  0.00  0.00    -0.506 OA
ATOM     12  H   UNL     1      35.635 -19.372 -20.083  0.00  0.00    +0.292 HD
ENDBRANCH   8  11
BRANCH   2  13
ATOM     13  C   UNL     1      34.137 -13.966 -23.086  0.00  0.00    +0.005 C 
BRANCH  13  14
ATOM     14  C   UNL     1      33.284 -12.931 -23.844  0.00  0.00    -0.073 C 
BRANCH  14  15
ATOM     15  N   UNL     1      34.101 -11.862 -24.410  0.00  0.00    +0.384 N 
ATOM     16  C   UNL     1      33.720 -10.569 -23.841  0.00  0.00    -0.101 C 
ATOM     17  C   UNL     1      33.974 -11.835 -25.867  0.00  0.00    -0.101 C 
ATOM     18  H   UNL     1      35.076 -12.047 -24.173  0.00  0.00    -0.080 HD
ENDBRANCH  14  15
ENDBRANCH  13  14
ENDBRANCH   2  13
TORSDOF 4
ENDMDL
MODEL 6
REMARK VINA RESULT:      -7.2      3.611      5.471
REMARK  Name = 10257
REMARK  4 active torsions:
REMARK  status: ('A' for Active; 'I' for Inactive)
REMARK    1  A    between atoms: C_2  and  C_13
REMARK    2  A    between atoms: C_8  and  O_11
REMARK    3  A    between atoms: C_13  and  C_14
REMARK    4  A    between atoms: C_14  and  N_15
REMARK                            x       y       z     vdW  Elec       q    Type
REMARK                         _______ _______ _______ _____ _____    ______ ____
ROOT
ATOM      1  N   UNL     1      34.057 -16.955 -25.401  0.00  0.00    -0.312 N 
ATOM      2  C   UNL     1      34.146 -15.339 -23.880  0.00  0.00    -0.008 C 
ATOM      3  C   UNL     1      34.607 -16.543 -23.278  0.00  0.00    +0.014 C 
ATOM      4  C   UNL     1      34.542 -17.540 -24.253  0.00  0.00    +0.048 C 
ATOM      5  C   UNL     1      33.816 -15.624 -25.185  0.00  0.00    +0.058 C 
ATOM      6  C   UNL     1      35.077 -16.881 -21.994  0.00  0.00    +0.038 C 
ATOM      7  C   UNL     1      34.922 -18.865 -24.006  0.00  0.00    +0.018 C 
ATOM      8  C   UNL     1      35.462 -18.201 -21.731  0.00  0.00    +0.134 C 
ATOM      9  C   UNL     1      35.385 -19.176 -22.724  0.00  0.00    +0.038 C 
ATOM     10  H   UNL     1      33.907 -17.424 -26.252  0.00  0.00    +0.152 HD
ENDROOT
BRANCH   8  11
ATOM     11  O   UNL     1      35.915 -18.535 -20.490  0.00  0.00    -0.506 OA
ATOM     12  H   UNL     1      36.738 -18.972 -20.394  0.00  0.00    +0.292 HD
ENDBRANCH   8  11
BRANCH   2  13
ATOM     13  C   UNL     1      34.038 -14.017 -23.232  0.00  0.00    +0.005 C 
BRANCH  13  14
ATOM     14  C   UNL     1      32.675 -13.341 -23.469  0.00  0.00    -0.073 C 
BRANCH  14  15
ATOM     15  N   UNL     1      31.924 -13.182 -22.228  0.00  0.00    +0.384 N 
ATOM     16  C   UNL     1      31.704 -11.764 -21.939  0.00  0.00    -0.101 C 
ATOM     17  C   UNL     1      32.624 -13.824 -21.116  0.00  0.00    -0.101 C 
ATOM     18  H   UNL     1      31.017 -13.634 -22.344  0.00  0.00    -0.080 HD
ENDBRANCH  14  15
ENDBRANCH  13  14
ENDBRANCH   2  13
TORSDOF 4
ENDMDL
MODEL 7
REMARK VINA RESULT:      -7.1      3.635      7.054
REMARK  Name = 10257
REMARK  4 active torsions:
REMARK  status: ('A' for Active; 'I' for Inactive)
REMARK    1  A    between atoms: C_2  and  C_13
REMARK    2  A    between atoms: C_8  and  O_11
REMARK    3  A    between atoms: C_13  and  C_14
REMARK    4  A    between atoms: C_14  and  N_15
REMARK                            x       y       z     vdW  Elec       q    Type
REMARK                         _______ _______ _______ _____ _____    ______ ____
ROOT
ATOM      1  N   UNL     1      34.393 -17.452 -25.333  0.00  0.00    -0.312 N 
ATOM      2  C   UNL     1      34.918 -17.097 -23.205  0.00  0.00    -0.008 C 
ATOM      3  C   UNL     1      34.318 -15.913 -23.719  0.00  0.00    +0.014 C 
ATOM      4  C   UNL     1      33.999 -16.162 -25.055  0.00  0.00    +0.048 C 
ATOM      5  C   UNL     1      34.950 -18.025 -24.220  0.00  0.00    +0.058 C 
ATOM      6  C   UNL     1      34.016 -14.651 -23.173  0.00  0.00    +0.038 C 
ATOM      7  C   UNL     1      33.390 -15.207 -25.877  0.00  0.00    +0.018 C 
ATOM      8  C   UNL     1      33.406 -13.685 -23.983  0.00  0.00    +0.134 C 
ATOM      9  C   UNL     1      33.099 -13.961 -25.313  0.00  0.00    +0.038 C 
ATOM     10  H   UNL     1      34.290 -17.897 -26.205  0.00  0.00    +0.152 HD
ENDROOT
BRANCH   8  11
ATOM     11  O   UNL     1      33.112 -12.460 -23.462  0.00  0.00    -0.506 OA
ATOM     12  H   UNL     1      33.793 -11.829 -23.335  0.00  0.00    +0.292 HD
ENDBRANCH   8  11
BRANCH   2  13
ATOM     13  C   UNL     1      35.419 -17.304 -21.832  0.00  0.00    +0.005 C 
BRANCH  13  14
ATOM     14  C   UNL     1      36.058 -18.690 -21.627  0.00  0.00    -0.073 C 
BRANCH  14  15
ATOM     15  N   UNL     1      35.439 -19.417 -20.523  0.00  0.00    +0.384 N 
ATOM     16  C   UNL     1      36.228 -20.602 -20.182  0.00  0.00    -0.101 C 
ATOM     17  C   UNL     1      34.069 -19.799 -20.862  0.00  0.00    -0.101 C 
ATOM     18  H   UNL     1      35.412 -18.801 -19.711  0.00  0.00    -0.080 HD
ENDBRANCH  14  15
ENDBRANCH  13  14
ENDBRANCH   2  13
TORSDOF 4
ENDMDL
MODEL 8
REMARK VINA RESULT:      -7.1      1.714      2.496
REMARK  Name = 10257
REMARK  4 active torsions:
REMARK  status: ('A' for Active; 'I' for Inactive)
REMARK    1  A    between atoms: C_2  and  C_13
REMARK    2  A    between atoms: C_8  and  O_11
REMARK    3  A    between atoms: C_13  and  C_14
REMARK    4  A    between atoms: C_14  and  N_15
REMARK                            x       y       z     vdW  Elec       q    Type
REMARK                         _______ _______ _______ _____ _____    ______ ____
ROOT
ATOM      1  N   UNL     1      33.147 -22.522 -18.635  0.00  0.00    -0.312 N 
ATOM      2  C   UNL     1      34.852 -21.410 -19.521  0.00  0.00    -0.008 C 
ATOM      3  C   UNL     1      35.276 -21.957 -18.278  0.00  0.00    +0.014 C 
ATOM      4  C   UNL     1      34.189 -22.650 -17.743  0.00  0.00    +0.048 C 
ATOM      5  C   UNL     1      33.539 -21.775 -19.713  0.00  0.00    +0.058 C 
ATOM      6  C   UNL     1      36.485 -21.931 -17.556  0.00  0.00    +0.038 C 
ATOM      7  C   UNL     1      34.249 -23.319 -16.515  0.00  0.00    +0.018 C 
ATOM      8  C   UNL     1      36.561 -22.595 -16.326  0.00  0.00    +0.134 C 
ATOM      9  C   UNL     1      35.459 -23.278 -15.816  0.00  0.00    +0.038 C 
ATOM     10  H   UNL     1      32.252 -22.911 -18.514  0.00  0.00    +0.152 HD
ENDROOT
BRANCH   8  11
ATOM     11  O   UNL     1      37.727 -22.572 -15.620  0.00  0.00    -0.506 OA
ATOM     12  H   UNL     1      37.715 -22.382 -14.703  0.00  0.00    +0.292 HD
ENDBRANCH   8  11
BRANCH   2  13
ATOM     13  C   UNL     1      35.666 -20.597 -20.447  0.00  0.00    +0.005 C 
BRANCH  13  14
ATOM     14  C   UNL     1      34.825 -19.610 -21.278  0.00  0.00    -0.073 C 
BRANCH  14  15
ATOM     15  N   UNL     1      35.606 -18.453 -21.702  0.00  0.00    +0.384 N 
ATOM     16  C   UNL     1      35.070 -17.226 -21.110  0.00  0.00    -0.101 C 
ATOM     17  C   UNL     1      35.622 -18.349 -23.161  0.00  0.00    -0.101 C 
ATOM     18  H   UNL     1      36.565 -18.578 -21.376  0.00  0.00    -0.080 HD
ENDBRANCH  14  15
ENDBRANCH  13  14
ENDBRANCH   2  13
TORSDOF 4
ENDMDL
MODEL 9
REMARK VINA RESULT:      -7.0      3.737      5.587
REMARK  Name = 10257
REMARK  4 active torsions:
REMARK  status: ('A' for Active; 'I' for Inactive)
REMARK    1  A    between atoms: C_2  and  C_13
REMARK    2  A    between atoms: C_8  and  O_11
REMARK    3  A    between atoms: C_13  and  C_14
REMARK    4  A    between atoms: C_14  and  N_15
REMARK                            x       y       z     vdW  Elec       q    Type
REMARK                         _______ _______ _______ _____ _____    ______ ____
ROOT
ATOM      1  N   UNL     1      34.686 -15.659 -20.723  0.00  0.00    -0.312 N 
ATOM      2  C   UNL     1      34.286 -14.982 -22.800  0.00  0.00    -0.008 C 
ATOM      3  C   UNL     1      34.560 -16.378 -22.832  0.00  0.00    +0.014 C 
ATOM      4  C   UNL     1      34.808 -16.777 -21.517  0.00  0.00    +0.048 C 
ATOM      5  C   UNL     1      34.370 -14.568 -21.490  0.00  0.00    +0.058 C 
ATOM      6  C   UNL     1      34.621 -17.342 -23.856  0.00  0.00    +0.038 C 
ATOM      7  C   UNL     1      35.116 -18.099 -21.174  0.00  0.00    +0.018 C 
ATOM      8  C   UNL     1      34.928 -18.669 -23.529  0.00  0.00    +0.134 C 
ATOM      9  C   UNL     1      35.171 -19.038 -22.207  0.00  0.00    +0.038 C 
ATOM     10  H   UNL     1      34.807 -15.644 -19.747  0.00  0.00    +0.152 HD
ENDROOT
BRANCH   8  11
ATOM     11  O   UNL     1      34.990 -19.607 -24.515  0.00  0.00    -0.506 OA
ATOM     12  H   UNL     1      35.210 -20.493 -24.305  0.00  0.00    +0.292 HD
ENDBRANCH   8  11
BRANCH   2  13
ATOM     13  C   UNL     1      33.966 -14.122 -23.957  0.00  0.00    +0.005 C 
BRANCH  13  14
ATOM     14  C   UNL     1      33.603 -12.681 -23.553  0.00  0.00    -0.073 C 
BRANCH  14  15
ATOM     15  N   UNL     1      34.271 -11.695 -24.396  0.00  0.00    +0.384 N 
ATOM     16  C   UNL     1      33.946 -10.338 -23.956  0.00  0.00    -0.101 C 
ATOM     17  C   UNL     1      33.897 -11.879 -25.798  0.00  0.00    -0.101 C 
ATOM     18  H   UNL     1      35.279 -11.831 -24.309  0.00  0.00    -0.080 HD
ENDBRANCH  14  15
ENDBRANCH  13  14
ENDBRANCH   2  13
TORSDOF 4
ENDMDL
