MODEL 1
REMARK VINA RESULT:      -8.1      0.000      0.000
REMARK  Name = 756618
REMARK  4 active torsions:
REMARK  status: ('A' for Active; 'I' for Inactive)
REMARK    1  A    between atoms: N_2  and  C_7
REMARK    2  A    between atoms: C_3  and  C_16
REMARK    3  A    between atoms: C_8  and  O_13
REMARK    4  A    between atoms: C_16  and  O_17
REMARK                            x       y       z     vdW  Elec       q    Type
REMARK                         _______ _______ _______ _____ _____    ______ ____
ROOT
ATOM      1  O   UNL     1      36.030 -26.668 -15.780  0.00  0.00    -0.275 OA
ATOM      2  N   UNL     1      35.796 -24.549 -14.715  0.00  0.00    -0.255 N 
ATOM      3  C   UNL     1      37.797 -24.608 -13.480  0.00  0.00    +0.128 C 
ATOM      4  C   UNL     1      36.677 -23.695 -13.938  0.00  0.00    +0.110 C 
ATOM      5  C   UNL     1      37.834 -25.719 -14.514  0.00  0.00    +0.098 C 
ATOM      6  C   UNL     1      36.434 -25.745 -15.086  0.00  0.00    +0.230 C 
ENDROOT
BRANCH   2   7
ATOM      7  C   UNL     1      34.482 -24.136 -15.090  0.00  0.00    +0.088 C 
ATOM      8  C   UNL     1      33.404 -24.277 -14.209  0.00  0.00    +0.147 C 
ATOM      9  C   UNL     1      34.267 -23.582 -16.357  0.00  0.00    +0.018 C 
ATOM     10  C   UNL     1      32.127 -23.869 -14.591  0.00  0.00    +0.038 C 
ATOM     11  C   UNL     1      32.989 -23.173 -16.738  0.00  0.00    +0.001 C 
ATOM     12  C   UNL     1      31.918 -23.317 -15.855  0.00  0.00    +0.003 C 
BRANCH   8  13
ATOM     13  O   UNL     1      33.586 -24.814 -12.969  0.00  0.00    -0.504 OA
ATOM     14  H   UNL     1      32.943 -25.394 -12.611  0.00  0.00    +0.292 HD
ENDBRANCH   8  13
ENDBRANCH   2   7
BRANCH   3  16
ATOM     15  O   UNL     1      37.120 -26.309 -11.898  0.00  0.00    -0.250 OA
ATOM     16  C   UNL     1      37.527 -25.178 -12.118  0.00  0.00    +0.315 C 
BRANCH  16  17
ATOM     17  O   UNL     1      37.794 -24.262 -11.154  0.00  0.00    -0.480 OA
ATOM     18  H   UNL     1      38.089 -23.406 -11.391  0.00  0.00    +0.295 HD
ENDBRANCH  16  17
ENDBRANCH   3  16
TORSDOF 4
ENDMDL
MODEL 2
REMARK VINA RESULT:      -7.9      9.040     11.186
REMARK  Name = 756618
REMARK  4 active torsions:
REMARK  status: ('A' for Active; 'I' for Inactive)
REMARK    1  A    between atoms: N_2  and  C_7
REMARK    2  A    between atoms: C_3  and  C_16
REMARK    3  A    between atoms: C_8  and  O_13
REMARK    4  A    between atoms: C_16  and  O_17
REMARK                            x       y       z     vdW  Elec       q    Type
REMARK                         _______ _______ _______ _____ _____    ______ ____
ROOT
ATOM      1  O   UNL     1      33.781 -16.220 -20.828  0.00  0.00    -0.275 OA
ATOM      2  N   UNL     1      34.773 -17.999 -22.065  0.00  0.00    -0.255 N 
ATOM      3  C   UNL     1      35.280 -16.773 -24.007  0.00  0.00    +0.128 C 
ATOM      4  C   UNL     1      35.547 -18.082 -23.291  0.00  0.00    +0.110 C 
ATOM      5  C   UNL     1      34.912 -15.799 -22.902  0.00  0.00    +0.098 C 
ATOM      6  C   UNL     1      34.387 -16.677 -21.788  0.00  0.00    +0.230 C 
ENDROOT
BRANCH   2   7
ATOM      7  C   UNL     1      34.535 -19.143 -21.244  0.00  0.00    +0.088 C 
ATOM      8  C   UNL     1      35.592 -19.807 -20.612  0.00  0.00    +0.147 C 
ATOM      9  C   UNL     1      33.228 -19.607 -21.068  0.00  0.00    +0.018 C 
ATOM     10  C   UNL     1      35.343 -20.922 -19.812  0.00  0.00    +0.038 C 
ATOM     11  C   UNL     1      32.979 -20.723 -20.269  0.00  0.00    +0.001 C 
ATOM     12  C   UNL     1      34.037 -21.381 -19.641  0.00  0.00    +0.003 C 
BRANCH   8  13
ATOM     13  O   UNL     1      36.876 -19.375 -20.766  0.00  0.00    -0.504 OA
ATOM     14  H   UNL     1      37.294 -19.440 -21.602  0.00  0.00    +0.292 HD
ENDBRANCH   8  13
ENDBRANCH   2   7
BRANCH   3  16
ATOM     15  O   UNL     1      33.829 -17.925 -25.562  0.00  0.00    -0.250 OA
ATOM     16  C   UNL     1      34.149 -16.896 -24.986  0.00  0.00    +0.315 C 
BRANCH  16  17
ATOM     17  O   UNL     1      33.525 -15.704 -25.149  0.00  0.00    -0.480 OA
ATOM     18  H   UNL     1      33.607 -15.240 -25.958  0.00  0.00    +0.295 HD
ENDBRANCH  16  17
ENDBRANCH   3  16
TORSDOF 4
ENDMDL
MODEL 3
REMARK VINA RESULT:      -7.8      0.995      1.695
REMARK  Name = 756618
REMARK  4 active torsions:
REMARK  status: ('A' for Active; 'I' for Inactive)
REMARK    1  A    between atoms: N_2  and  C_7
REMARK    2  A    between atoms: C_3  and  C_16
REMARK    3  A    between atoms: C_8  and  O_13
REMARK    4  A    between atoms: C_16  and  O_17
REMARK                            x       y       z     vdW  Elec       q    Type
REMARK                         _______ _______ _______ _____ _____    ______ ____
ROOT
ATOM      1  O   UNL     1      36.007 -26.549 -15.862  0.00  0.00    -0.275 OA
ATOM      2  N   UNL     1      35.691 -24.493 -14.699  0.00  0.00    -0.255 N 
ATOM      3  C   UNL     1      37.698 -24.528 -13.472  0.00  0.00    +0.128 C 
ATOM      4  C   UNL     1      36.539 -23.641 -13.885  0.00  0.00    +0.110 C 
ATOM      5  C   UNL     1      37.775 -25.587 -14.556  0.00  0.00    +0.098 C 
ATOM      6  C   UNL     1      36.375 -25.644 -15.126  0.00  0.00    +0.230 C 
ENDROOT
BRANCH   2   7
ATOM      7  C   UNL     1      34.360 -24.117 -15.052  0.00  0.00    +0.088 C 
ATOM      8  C   UNL     1      34.092 -23.476 -16.266  0.00  0.00    +0.147 C 
ATOM      9  C   UNL     1      33.307 -24.393 -14.173  0.00  0.00    +0.018 C 
ATOM     10  C   UNL     1      32.786 -23.115 -16.597  0.00  0.00    +0.038 C 
ATOM     11  C   UNL     1      32.001 -24.032 -14.504  0.00  0.00    +0.001 C 
ATOM     12  C   UNL     1      31.741 -23.393 -15.717  0.00  0.00    +0.003 C 
BRANCH   8  13
ATOM     13  O   UNL     1      35.100 -23.195 -17.141  0.00  0.00    -0.504 OA
ATOM     14  H   UNL     1      35.625 -22.429 -17.019  0.00  0.00    +0.292 HD
ENDBRANCH   8  13
ENDBRANCH   2   7
BRANCH   3  16
ATOM     15  O   UNL     1      37.078 -26.319 -11.970  0.00  0.00    -0.250 OA
ATOM     16  C   UNL     1      37.457 -25.170 -12.138  0.00  0.00    +0.315 C 
BRANCH  16  17
ATOM     17  O   UNL     1      37.714 -24.297 -11.132  0.00  0.00    -0.480 OA
ATOM     18  H   UNL     1      37.255 -23.482 -11.092  0.00  0.00    +0.295 HD
ENDBRANCH  16  17
ENDBRANCH   3  16
TORSDOF 4
ENDMDL
MODEL 4
REMARK VINA RESULT:      -7.7      3.740      6.871
REMARK  Name = 756618
REMARK  4 active torsions:
REMARK  status: ('A' for Active; 'I' for Inactive)
REMARK    1  A    between atoms: N_2  and  C_7
REMARK    2  A    between atoms: C_3  and  C_16
REMARK    3  A    between atoms: C_8  and  O_13
REMARK    4  A    between atoms: C_16  and  O_17
REMARK                            x       y       z     vdW  Elec       q    Type
REMARK                         _______ _______ _______ _____ _____    ______ ____
ROOT
ATOM      1  O   UNL     1      30.464 -25.918 -15.245  0.00  0.00    -0.275 OA
ATOM      2  N   UNL     1      30.714 -23.559 -15.473  0.00  0.00    -0.255 N 
ATOM      3  C   UNL     1      28.427 -23.009 -15.454  0.00  0.00    +0.128 C 
ATOM      4  C   UNL     1      29.820 -22.422 -15.345  0.00  0.00    +0.110 C 
ATOM      5  C   UNL     1      28.581 -24.450 -15.003  0.00  0.00    +0.098 C 
ATOM      6  C   UNL     1      30.035 -24.773 -15.270  0.00  0.00    +0.230 C 
ENDROOT
BRANCH   2   7
ATOM      7  C   UNL     1      32.114 -23.397 -15.699  0.00  0.00    +0.088 C 
ATOM      8  C   UNL     1      33.014 -23.349 -14.629  0.00  0.00    +0.147 C 
ATOM      9  C   UNL     1      32.595 -23.285 -17.008  0.00  0.00    +0.018 C 
ATOM     10  C   UNL     1      34.380 -23.191 -14.867  0.00  0.00    +0.038 C 
ATOM     11  C   UNL     1      33.960 -23.127 -17.245  0.00  0.00    +0.001 C 
ATOM     12  C   UNL     1      34.853 -23.080 -16.174  0.00  0.00    +0.003 C 
BRANCH   8  13
ATOM     13  O   UNL     1      32.573 -23.455 -13.344  0.00  0.00    -0.504 OA
ATOM     14  H   UNL     1      33.039 -23.989 -12.731  0.00  0.00    +0.292 HD
ENDBRANCH   8  13
ENDBRANCH   2   7
BRANCH   3  16
ATOM     15  O   UNL     1      27.773 -23.930 -17.593  0.00  0.00    -0.250 OA
ATOM     16  C   UNL     1      27.913 -22.960 -16.863  0.00  0.00    +0.315 C 
BRANCH  16  17
ATOM     17  O   UNL     1      27.626 -21.685 -17.225  0.00  0.00    -0.480 OA
ATOM     18  H   UNL     1      26.991 -21.520 -17.892  0.00  0.00    +0.295 HD
ENDBRANCH  16  17
ENDBRANCH   3  16
TORSDOF 4
ENDMDL
MODEL 5
REMARK VINA RESULT:      -7.5      8.608     10.541
REMARK  Name = 756618
REMARK  4 active torsions:
REMARK  status: ('A' for Active; 'I' for Inactive)
REMARK    1  A    between atoms: N_2  and  C_7
REMARK    2  A    between atoms: C_3  and  C_16
REMARK    3  A    between atoms: C_8  and  O_13
REMARK    4  A    between atoms: C_16  and  O_17
REMARK                            x       y       z     vdW  Elec       q    Type
REMARK                         _______ _______ _______ _____ _____    ______ ____
ROOT
ATOM      1  O   UNL     1      35.678 -18.472 -23.589  0.00  0.00    -0.275 OA
ATOM      2  N   UNL     1      34.297 -18.182 -21.668  0.00  0.00    -0.255 N 
ATOM      3  C   UNL     1      33.640 -15.965 -22.099  0.00  0.00    +0.128 C 
ATOM      4  C   UNL     1      33.335 -17.180 -21.246  0.00  0.00    +0.110 C 
ATOM      5  C   UNL     1      34.291 -16.528 -23.349  0.00  0.00    +0.098 C 
ATOM      6  C   UNL     1      34.878 -17.849 -22.904  0.00  0.00    +0.230 C 
ENDROOT
BRANCH   2   7
ATOM      7  C   UNL     1      34.524 -19.375 -20.917  0.00  0.00    +0.088 C 
ATOM      8  C   UNL     1      35.822 -19.783 -20.592  0.00  0.00    +0.147 C 
ATOM      9  C   UNL     1      33.435 -20.147 -20.500  0.00  0.00    +0.018 C 
ATOM     10  C   UNL     1      36.028 -20.951 -19.858  0.00  0.00    +0.038 C 
ATOM     11  C   UNL     1      33.641 -21.315 -19.766  0.00  0.00    +0.001 C 
ATOM     12  C   UNL     1      34.938 -21.717 -19.445  0.00  0.00    +0.003 C 
BRANCH   8  13
ATOM     13  O   UNL     1      36.901 -19.049 -20.986  0.00  0.00    -0.504 OA
ATOM     14  H   UNL     1      36.922 -18.125 -20.829  0.00  0.00    +0.292 HD
ENDBRANCH   8  13
ENDBRANCH   2   7
BRANCH   3  16
ATOM     15  O   UNL     1      34.971 -15.141 -20.256  0.00  0.00    -0.250 OA
ATOM     16  C   UNL     1      34.579 -15.021 -21.407  0.00  0.00    +0.315 C 
BRANCH  16  17
ATOM     17  O   UNL     1      34.934 -14.006 -22.233  0.00  0.00    -0.480 OA
ATOM     18  H   UNL     1      35.595 -14.142 -22.883  0.00  0.00    +0.295 HD
ENDBRANCH  16  17
ENDBRANCH   3  16
TORSDOF 4
ENDMDL
MODEL 6
REMARK VINA RESULT:      -7.5     17.367     19.200
REMARK  Name = 756618
REMARK  4 active torsions:
REMARK  status: ('A' for Active; 'I' for Inactive)
REMARK    1  A    between atoms: N_2  and  C_7
REMARK    2  A    between atoms: C_3  and  C_16
REMARK    3  A    between atoms: C_8  and  O_13
REMARK    4  A    between atoms: C_16  and  O_17
REMARK                            x       y       z     vdW  Elec       q    Type
REMARK                         _______ _______ _______ _____ _____    ______ ____
ROOT
ATOM      1  O   UNL     1      34.338  -7.681 -22.496  0.00  0.00    -0.275 OA
ATOM      2  N   UNL     1      31.997  -8.129 -22.527  0.00  0.00    -0.255 N 
ATOM      3  C   UNL     1      31.368  -6.356 -23.939  0.00  0.00    +0.128 C 
ATOM      4  C   UNL     1      30.877  -7.648 -23.316  0.00  0.00    +0.110 C 
ATOM      5  C   UNL     1      32.878  -6.506 -23.994  0.00  0.00    +0.098 C 
ATOM      6  C   UNL     1      33.197  -7.496 -22.896  0.00  0.00    +0.230 C 
ENDROOT
BRANCH   2   7
ATOM      7  C   UNL     1      31.850  -9.173 -21.564  0.00  0.00    +0.088 C 
ATOM      8  C   UNL     1      32.226  -8.980 -20.231  0.00  0.00    +0.147 C 
ATOM      9  C   UNL     1      31.323 -10.408 -21.959  0.00  0.00    +0.018 C 
ATOM     10  C   UNL     1      32.075 -10.010 -19.303  0.00  0.00    +0.038 C 
ATOM     11  C   UNL     1      31.173 -11.437 -21.031  0.00  0.00    +0.001 C 
ATOM     12  C   UNL     1      31.550 -11.239 -19.701  0.00  0.00    +0.003 C 
BRANCH   8  13
ATOM     13  O   UNL     1      32.742  -7.787 -19.820  0.00  0.00    -0.504 OA
ATOM     14  H   UNL     1      33.669  -7.683 -19.735  0.00  0.00    +0.292 HD
ENDBRANCH   8  13
ENDBRANCH   2   7
BRANCH   3  16
ATOM     15  O   UNL     1      30.212  -5.175 -22.173  0.00  0.00    -0.250 OA
ATOM     16  C   UNL     1      30.998  -5.163 -23.108  0.00  0.00    +0.315 C 
BRANCH  16  17
ATOM     17  O   UNL     1      31.654  -4.057 -23.538  0.00  0.00    -0.480 OA
ATOM     18  H   UNL     1      32.041  -4.044 -24.391  0.00  0.00    +0.295 HD
ENDBRANCH  16  17
ENDBRANCH   3  16
TORSDOF 4
ENDMDL
MODEL 7
REMARK VINA RESULT:      -7.4     15.987     17.823
REMARK  Name = 756618
REMARK  4 active torsions:
REMARK  status: ('A' for Active; 'I' for Inactive)
REMARK    1  A    between atoms: N_2  and  C_7
REMARK    2  A    between atoms: C_3  and  C_16
REMARK    3  A    between atoms: C_8  and  O_13
REMARK    4  A    between atoms: C_16  and  O_17
REMARK                            x       y       z     vdW  Elec       q    Type
REMARK                         _______ _______ _______ _____ _____    ______ ____
ROOT
ATOM      1  O   UNL     1      32.650  -8.699 -19.718  0.00  0.00    -0.275 OA
ATOM      2  N   UNL     1      31.982  -9.387 -21.900  0.00  0.00    -0.255 N 
ATOM      3  C   UNL     1      30.825 -11.334 -21.263  0.00  0.00    +0.128 C 
ATOM      4  C   UNL     1      31.058 -10.380 -22.418  0.00  0.00    +0.110 C 
ATOM      5  C   UNL     1      31.100 -10.506 -20.021  0.00  0.00    +0.098 C 
ATOM      6  C   UNL     1      32.034  -9.415 -20.496  0.00  0.00    +0.230 C 
ENDROOT
BRANCH   2   7
ATOM      7  C   UNL     1      32.666  -8.472 -22.756  0.00  0.00    +0.088 C 
ATOM      8  C   UNL     1      32.069  -7.267 -23.143  0.00  0.00    +0.147 C 
ATOM      9  C   UNL     1      33.950  -8.782 -23.216  0.00  0.00    +0.018 C 
ATOM     10  C   UNL     1      32.750  -6.383 -23.980  0.00  0.00    +0.038 C 
ATOM     11  C   UNL     1      34.630  -7.898 -24.053  0.00  0.00    +0.001 C 
ATOM     12  C   UNL     1      34.030  -6.698 -24.435  0.00  0.00    +0.003 C 
BRANCH   8  13
ATOM     13  O   UNL     1      30.818  -6.940 -22.710  0.00  0.00    -0.504 OA
ATOM     14  H   UNL     1      30.351  -6.237 -23.116  0.00  0.00    +0.292 HD
ENDBRANCH   8  13
ENDBRANCH   2   7
BRANCH   3  16
ATOM     15  O   UNL     1      32.344 -12.984 -20.359  0.00  0.00    -0.250 OA
ATOM     16  C   UNL     1      31.756 -12.509 -21.318  0.00  0.00    +0.315 C 
BRANCH  16  17
ATOM     17  O   UNL     1      31.863 -12.977 -22.586  0.00  0.00    -0.480 OA
ATOM     18  H   UNL     1      31.730 -12.399 -23.311  0.00  0.00    +0.295 HD
ENDBRANCH  16  17
ENDBRANCH   3  16
TORSDOF 4
ENDMDL
MODEL 8
REMARK VINA RESULT:      -7.4      4.120      7.020
REMARK  Name = 756618
REMARK  4 active torsions:
REMARK  status: ('A' for Active; 'I' for Inactive)
REMARK    1  A    between atoms: N_2  and  C_7
REMARK    2  A    between atoms: C_3  and  C_16
REMARK    3  A    between atoms: C_8  and  O_13
REMARK    4  A    between atoms: C_16  and  O_17
REMARK                            x       y       z     vdW  Elec       q    Type
REMARK                         _______ _______ _______ _____ _____    ______ ____
ROOT
ATOM      1  O   UNL     1      30.416 -26.153 -15.320  0.00  0.00    -0.275 OA
ATOM      2  N   UNL     1      30.726 -23.790 -15.364  0.00  0.00    -0.255 N 
ATOM      3  C   UNL     1      28.452 -23.187 -15.395  0.00  0.00    +0.128 C 
ATOM      4  C   UNL     1      29.852 -22.644 -15.188  0.00  0.00    +0.110 C 
ATOM      5  C   UNL     1      28.557 -24.660 -15.045  0.00  0.00    +0.098 C 
ATOM      6  C   UNL     1      30.013 -24.998 -15.277  0.00  0.00    +0.230 C 
ENDROOT
BRANCH   2   7
ATOM      7  C   UNL     1      32.137 -23.647 -15.523  0.00  0.00    +0.088 C 
ATOM      8  C   UNL     1      32.683 -23.196 -16.730  0.00  0.00    +0.147 C 
ATOM      9  C   UNL     1      32.988 -23.962 -14.459  0.00  0.00    +0.018 C 
ATOM     10  C   UNL     1      34.064 -23.061 -16.870  0.00  0.00    +0.038 C 
ATOM     11  C   UNL     1      34.369 -23.827 -14.599  0.00  0.00    +0.001 C 
ATOM     12  C   UNL     1      34.907 -23.377 -15.806  0.00  0.00    +0.003 C 
BRANCH   8  13
ATOM     13  O   UNL     1      31.876 -22.883 -17.784  0.00  0.00    -0.504 OA
ATOM     14  H   UNL     1      32.222 -22.881 -18.654  0.00  0.00    +0.292 HD
ENDBRANCH   8  13
ENDBRANCH   2   7
BRANCH   3  16
ATOM     15  O   UNL     1      27.775 -23.941 -17.591  0.00  0.00    -0.250 OA
ATOM     16  C   UNL     1      27.998 -23.024 -16.816  0.00  0.00    +0.315 C 
BRANCH  16  17
ATOM     17  O   UNL     1      27.868 -21.711 -17.130  0.00  0.00    -0.480 OA
ATOM     18  H   UNL     1      27.067 -21.395 -17.498  0.00  0.00    +0.295 HD
ENDBRANCH  16  17
ENDBRANCH   3  16
TORSDOF 4
ENDMDL
MODEL 9
REMARK VINA RESULT:      -7.3      7.156      8.803
REMARK  Name = 756618
REMARK  4 active torsions:
REMARK  status: ('A' for Active; 'I' for Inactive)
REMARK    1  A    between atoms: N_2  and  C_7
REMARK    2  A    between atoms: C_3  and  C_16
REMARK    3  A    between atoms: C_8  and  O_13
REMARK    4  A    between atoms: C_16  and  O_17
REMARK                            x       y       z     vdW  Elec       q    Type
REMARK                         _______ _______ _______ _____ _____    ______ ____
ROOT
ATOM      1  O   UNL     1      32.562 -20.046 -20.103  0.00  0.00    -0.275 OA
ATOM      2  N   UNL     1      34.808 -19.907 -20.888  0.00  0.00    -0.255 N 
ATOM      3  C   UNL     1      35.622 -21.839 -19.820  0.00  0.00    +0.128 C 
ATOM      4  C   UNL     1      35.948 -20.807 -20.882  0.00  0.00    +0.110 C 
ATOM      5  C   UNL     1      34.106 -21.849 -19.748  0.00  0.00    +0.098 C 
ATOM      6  C   UNL     1      33.698 -20.479 -20.243  0.00  0.00    +0.230 C 
ENDROOT
BRANCH   2   7
ATOM      7  C   UNL     1      34.847 -18.644 -21.552  0.00  0.00    +0.088 C 
ATOM      8  C   UNL     1      34.873 -18.566 -22.948  0.00  0.00    +0.147 C 
ATOM      9  C   UNL     1      34.859 -17.466 -20.797  0.00  0.00    +0.018 C 
ATOM     10  C   UNL     1      34.910 -17.324 -23.582  0.00  0.00    +0.038 C 
ATOM     11  C   UNL     1      34.896 -16.225 -21.430  0.00  0.00    +0.001 C 
ATOM     12  C   UNL     1      34.922 -16.154 -22.824  0.00  0.00    +0.003 C 
BRANCH   8  13
ATOM     13  O   UNL     1      34.863 -19.698 -23.708  0.00  0.00    -0.504 OA
ATOM     14  H   UNL     1      35.628 -20.238 -23.754  0.00  0.00    +0.292 HD
ENDBRANCH   8  13
ENDBRANCH   2   7
BRANCH   3  16
ATOM     15  O   UNL     1      36.935 -20.512 -18.283  0.00  0.00    -0.250 OA
ATOM     16  C   UNL     1      36.202 -21.467 -18.487  0.00  0.00    +0.315 C 
BRANCH  16  17
ATOM     17  O   UNL     1      35.802 -22.341 -17.530  0.00  0.00    -0.480 OA
ATOM     18  H   UNL     1      35.694 -22.050 -16.647  0.00  0.00    +0.295 HD
ENDBRANCH  16  17
ENDBRANCH   3  16
TORSDOF 4
ENDMDL
