MODEL 1
REMARK VINA RESULT:     -10.1      0.000      0.000
REMARK  Name = 5503
REMARK  3 active torsions:
REMARK  status: ('A' for Active; 'I' for Inactive)
REMARK    1  A    between atoms: N_2  and  N_7
REMARK    2  A    between atoms: N_3  and  S_14
REMARK    3  A    between atoms: S_14  and  C_17
REMARK                            x       y       z     vdW  Elec       q    Type
REMARK                         _______ _______ _______ _____ _____    ______ ____
ROOT
ATOM      1  O   UNL     1      34.566 -24.318 -16.190  0.00  0.00    -0.250 OA
ATOM      2  N   UNL     1      36.365 -22.957 -15.677  0.00  0.00    -0.230 N 
ATOM      3  N   UNL     1      35.066 -22.491 -17.555  0.00  0.00    -0.168 N 
ATOM      4  C   UNL     1      35.282 -23.350 -16.430  0.00  0.00    +0.333 C 
ATOM      5  H   UNL     1      36.890 -22.166 -15.937  0.00  0.00    +0.171 HD
ATOM      6  H   UNL     1      35.708 -21.757 -17.692  0.00  0.00    +0.178 HD
ENDROOT
BRANCH   2   7
ATOM      7  N   UNL     1      36.704 -23.685 -14.552  0.00  0.00    -0.205 NA
ATOM      8  C   UNL     1      37.963 -25.800 -12.560  0.00  0.00    +0.002 C 
ATOM      9  C   UNL     1      37.067 -24.809 -11.821  0.00  0.00    +0.002 C 
ATOM     10  C   UNL     1      37.776 -25.848 -14.075  0.00  0.00    +0.019 C 
ATOM     11  C   UNL     1      37.439 -23.361 -12.126  0.00  0.00    +0.019 C 
ATOM     12  C   UNL     1      37.888 -24.505 -14.801  0.00  0.00    +0.092 C 
ATOM     13  C   UNL     1      36.804 -22.790 -13.399  0.00  0.00    +0.092 C 
ENDBRANCH   2   7
BRANCH   3  14
ATOM     14  S   UNL     1      33.787 -22.634 -18.680  0.00  0.00    +0.077 S 
ATOM     15  O   UNL     1      34.000 -23.811 -19.499  0.00  0.00    -0.150 OA
ATOM     16  O   UNL     1      32.523 -22.430 -18.000  0.00  0.00    -0.150 OA
BRANCH  14  17
ATOM     17  C   UNL     1      34.087 -21.231 -19.713  0.00  0.00    +0.125 C 
ATOM     18  C   UNL     1      35.393 -20.877 -20.008  0.00  0.00    +0.020 C 
ATOM     19  C   UNL     1      33.012 -20.513 -20.208  0.00  0.00    +0.020 C 
ATOM     20  C   UNL     1      34.558 -19.035 -21.331  0.00  0.00    -0.022 C 
ATOM     21  C   UNL     1      35.630 -19.770 -20.822  0.00  0.00    -0.003 C 
ATOM     22  C   UNL     1      33.250 -19.407 -21.023  0.00  0.00    -0.003 C 
ATOM     23  C   UNL     1      34.812 -17.851 -22.202  0.00  0.00    +0.031 C 
ENDBRANCH  14  17
ENDBRANCH   3  14
TORSDOF 3
ENDMDL
MODEL 2
REMARK VINA RESULT:      -9.6      5.999     10.887
REMARK  Name = 5503
REMARK  3 active torsions:
REMARK  status: ('A' for Active; 'I' for Inactive)
REMARK    1  A    between atoms: N_2  and  N_7
REMARK    2  A    between atoms: N_3  and  S_14
REMARK    3  A    between atoms: S_14  and  C_17
REMARK                            x       y       z     vdW  Elec       q    Type
REMARK                         _______ _______ _______ _____ _____    ______ ____
ROOT
ATOM      1  O   UNL     1      35.278 -15.645 -23.457  0.00  0.00    -0.250 OA
ATOM      2  N   UNL     1      33.282 -15.164 -22.391  0.00  0.00    -0.230 N 
ATOM      3  N   UNL     1      34.183 -17.306 -22.235  0.00  0.00    -0.168 N 
ATOM      4  C   UNL     1      34.325 -15.982 -22.761  0.00  0.00    +0.333 C 
ATOM      5  H   UNL     1      32.553 -15.510 -21.828  0.00  0.00    +0.171 HD
ATOM      6  H   UNL     1      33.371 -17.501 -21.714  0.00  0.00    +0.178 HD
ENDROOT
BRANCH   2   7
ATOM      7  N   UNL     1      33.274 -13.848 -22.818  0.00  0.00    -0.205 NA
ATOM      8  C   UNL     1      33.328 -11.221 -24.585  0.00  0.00    +0.002 C 
ATOM      9  C   UNL     1      33.160 -10.889 -23.104  0.00  0.00    +0.002 C 
ATOM     10  C   UNL     1      33.822 -12.634 -24.886  0.00  0.00    +0.019 C 
ATOM     11  C   UNL     1      32.005 -11.658 -22.469  0.00  0.00    +0.019 C 
ATOM     12  C   UNL     1      33.014 -13.770 -24.254  0.00  0.00    +0.092 C 
ATOM     13  C   UNL     1      32.363 -13.066 -21.982  0.00  0.00    +0.092 C 
ENDBRANCH   2   7
BRANCH   3  14
ATOM     14  S   UNL     1      35.307 -18.579 -22.438  0.00  0.00    +0.077 S 
ATOM     15  O   UNL     1      35.108 -19.189 -23.737  0.00  0.00    -0.150 OA
ATOM     16  O   UNL     1      36.623 -18.127 -22.032  0.00  0.00    -0.150 OA
BRANCH  14  17
ATOM     17  C   UNL     1      34.728 -19.736 -21.234  0.00  0.00    +0.125 C 
ATOM     18  C   UNL     1      33.371 -19.811 -20.966  0.00  0.00    +0.020 C 
ATOM     19  C   UNL     1      35.640 -20.548 -20.582  0.00  0.00    +0.020 C 
ATOM     20  C   UNL     1      33.820 -21.550 -19.350  0.00  0.00    -0.022 C 
ATOM     21  C   UNL     1      32.915 -20.723 -20.016  0.00  0.00    -0.003 C 
ATOM     22  C   UNL     1      35.182 -21.461 -19.633  0.00  0.00    -0.003 C 
ATOM     23  C   UNL     1      33.331 -22.526 -18.334  0.00  0.00    +0.031 C 
ENDBRANCH  14  17
ENDBRANCH   3  14
TORSDOF 3
ENDMDL
MODEL 3
REMARK VINA RESULT:      -9.5      3.703      4.642
REMARK  Name = 5503
REMARK  3 active torsions:
REMARK  status: ('A' for Active; 'I' for Inactive)
REMARK    1  A    between atoms: N_2  and  N_7
REMARK    2  A    between atoms: N_3  and  S_14
REMARK    3  A    between atoms: S_14  and  C_17
REMARK                            x       y       z     vdW  Elec       q    Type
REMARK                         _______ _______ _______ _____ _____    ______ ____
ROOT
ATOM      1  O   UNL     1      33.780 -23.761 -17.122  0.00  0.00    -0.250 OA
ATOM      2  N   UNL     1      31.782 -22.597 -17.211  0.00  0.00    -0.230 N 
ATOM      3  N   UNL     1      33.539 -21.977 -18.609  0.00  0.00    -0.168 N 
ATOM      4  C   UNL     1      33.078 -22.868 -17.587  0.00  0.00    +0.333 C 
ATOM      5  H   UNL     1      31.285 -21.860 -17.634  0.00  0.00    +0.171 HD
ATOM      6  H   UNL     1      32.923 -21.268 -18.903  0.00  0.00    +0.178 HD
ENDROOT
BRANCH   2   7
ATOM      7  N   UNL     1      31.189 -23.373 -16.232  0.00  0.00    -0.205 NA
ATOM      8  C   UNL     1      30.437 -24.759 -13.486  0.00  0.00    +0.002 C 
ATOM      9  C   UNL     1      29.504 -25.209 -14.608  0.00  0.00    +0.002 C 
ATOM     10  C   UNL     1      31.732 -24.091 -13.942  0.00  0.00    +0.019 C 
ATOM     11  C   UNL     1      28.883 -24.027 -15.347  0.00  0.00    +0.019 C 
ATOM     12  C   UNL     1      31.568 -22.907 -14.899  0.00  0.00    +0.092 C 
ATOM     13  C   UNL     1      29.747 -23.449 -16.472  0.00  0.00    +0.092 C 
ENDBRANCH   2   7
BRANCH   3  14
ATOM     14  S   UNL     1      35.073 -22.043 -19.363  0.00  0.00    +0.077 S 
ATOM     15  O   UNL     1      36.107 -21.938 -18.352  0.00  0.00    -0.150 OA
ATOM     16  O   UNL     1      35.091 -23.129 -20.323  0.00  0.00    -0.150 OA
BRANCH  14  17
ATOM     17  C   UNL     1      35.076 -20.519 -20.257  0.00  0.00    +0.125 C 
ATOM     18  C   UNL     1      36.284 -19.908 -20.548  0.00  0.00    +0.020 C 
ATOM     19  C   UNL     1      33.870 -19.964 -20.651  0.00  0.00    +0.020 C 
ATOM     20  C   UNL     1      35.080 -18.132 -21.659  0.00  0.00    -0.022 C 
ATOM     21  C   UNL     1      36.286 -18.705 -21.253  0.00  0.00    -0.003 C 
ATOM     22  C   UNL     1      33.873 -18.761 -21.358  0.00  0.00    -0.003 C 
ATOM     23  C   UNL     1      35.083 -16.845 -22.413  0.00  0.00    +0.031 C 
ENDBRANCH  14  17
ENDBRANCH   3  14
TORSDOF 3
ENDMDL
MODEL 4
REMARK VINA RESULT:      -9.5      2.356      8.474
REMARK  Name = 5503
REMARK  3 active torsions:
REMARK  status: ('A' for Active; 'I' for Inactive)
REMARK    1  A    between atoms: N_2  and  N_7
REMARK    2  A    between atoms: N_3  and  S_14
REMARK    3  A    between atoms: S_14  and  C_17
REMARK                            x       y       z     vdW  Elec       q    Type
REMARK                         _______ _______ _______ _____ _____    ______ ____
ROOT
ATOM      1  O   UNL     1      33.007 -20.282 -20.717  0.00  0.00    -0.250 OA
ATOM      2  N   UNL     1      35.153 -19.420 -20.731  0.00  0.00    -0.230 N 
ATOM      3  N   UNL     1      34.678 -21.304 -19.447  0.00  0.00    -0.168 N 
ATOM      4  C   UNL     1      34.177 -20.310 -20.347  0.00  0.00    +0.333 C 
ATOM      5  H   UNL     1      36.072 -19.510 -20.389  0.00  0.00    +0.171 HD
ATOM      6  H   UNL     1      35.622 -21.234 -19.175  0.00  0.00    +0.178 HD
ENDROOT
BRANCH   2   7
ATOM      7  N   UNL     1      34.828 -18.398 -21.604  0.00  0.00    -0.205 NA
ATOM      8  C   UNL     1      34.229 -15.565 -22.887  0.00  0.00    +0.002 C 
ATOM      9  C   UNL     1      34.098 -16.681 -23.921  0.00  0.00    +0.002 C 
ATOM     10  C   UNL     1      34.217 -16.021 -21.430  0.00  0.00    +0.019 C 
ATOM     11  C   UNL     1      35.337 -17.570 -23.967  0.00  0.00    +0.019 C 
ATOM     12  C   UNL     1      35.236 -17.103 -21.062  0.00  0.00    +0.092 C 
ATOM     13  C   UNL     1      35.352 -18.703 -22.936  0.00  0.00    +0.092 C 
ENDBRANCH   2   7
BRANCH   3  14
ATOM     14  S   UNL     1      33.773 -22.604 -18.802  0.00  0.00    +0.077 S 
ATOM     15  O   UNL     1      32.424 -22.154 -18.522  0.00  0.00    -0.150 OA
ATOM     16  O   UNL     1      34.001 -23.792 -19.602  0.00  0.00    -0.150 OA
BRANCH  14  17
ATOM     17  C   UNL     1      34.571 -22.831 -17.242  0.00  0.00    +0.125 C 
ATOM     18  C   UNL     1      35.871 -22.382 -17.076  0.00  0.00    +0.020 C 
ATOM     19  C   UNL     1      33.883 -23.452 -16.214  0.00  0.00    +0.020 C 
ATOM     20  C   UNL     1      35.822 -23.185 -14.798  0.00  0.00    -0.022 C 
ATOM     21  C   UNL     1      36.501 -22.562 -15.845  0.00  0.00    -0.003 C 
ATOM     22  C   UNL     1      34.514 -23.630 -14.982  0.00  0.00    -0.003 C 
ATOM     23  C   UNL     1      36.496 -23.377 -13.481  0.00  0.00    +0.031 C 
ENDBRANCH  14  17
ENDBRANCH   3  14
TORSDOF 3
ENDMDL
MODEL 5
REMARK VINA RESULT:      -9.0      3.457      8.427
REMARK  Name = 5503
REMARK  3 active torsions:
REMARK  status: ('A' for Active; 'I' for Inactive)
REMARK    1  A    between atoms: N_2  and  N_7
REMARK    2  A    between atoms: N_3  and  S_14
REMARK    3  A    between atoms: S_14  and  C_17
REMARK                            x       y       z     vdW  Elec       q    Type
REMARK                         _______ _______ _______ _____ _____    ______ ____
ROOT
ATOM      1  O   UNL     1      35.340 -20.754 -20.798  0.00  0.00    -0.250 OA
ATOM      2  N   UNL     1      33.422 -19.463 -20.704  0.00  0.00    -0.230 N 
ATOM      3  N   UNL     1      33.595 -21.366 -19.372  0.00  0.00    -0.168 N 
ATOM      4  C   UNL     1      34.220 -20.526 -20.349  0.00  0.00    +0.333 C 
ATOM      5  H   UNL     1      32.533 -19.349 -20.297  0.00  0.00    +0.171 HD
ATOM      6  H   UNL     1      32.681 -21.129 -19.091  0.00  0.00    +0.178 HD
ENDROOT
BRANCH   2   7
ATOM      7  N   UNL     1      33.887 -18.555 -21.639  0.00  0.00    -0.205 NA
ATOM      8  C   UNL     1      35.169 -16.029 -23.054  0.00  0.00    +0.002 C 
ATOM      9  C   UNL     1      34.705 -17.062 -24.078  0.00  0.00    +0.002 C 
ATOM     10  C   UNL     1      34.596 -16.199 -21.648  0.00  0.00    +0.019 C 
ATOM     11  C   UNL     1      35.265 -18.451 -23.788  0.00  0.00    +0.019 C 
ATOM     12  C   UNL     1      34.782 -17.581 -21.017  0.00  0.00    +0.092 C 
ATOM     13  C   UNL     1      34.452 -19.272 -22.782  0.00  0.00    +0.092 C 
ENDBRANCH   2   7
BRANCH   3  14
ATOM     14  S   UNL     1      34.302 -22.747 -18.654  0.00  0.00    +0.077 S 
ATOM     15  O   UNL     1      34.079 -23.897 -19.508  0.00  0.00    -0.150 OA
ATOM     16  O   UNL     1      35.638 -22.420 -18.195  0.00  0.00    -0.150 OA
BRANCH  14  17
ATOM     17  C   UNL     1      33.270 -22.956 -17.235  0.00  0.00    +0.125 C 
ATOM     18  C   UNL     1      33.844 -23.323 -16.029  0.00  0.00    +0.020 C 
ATOM     19  C   UNL     1      31.906 -22.750 -17.354  0.00  0.00    +0.020 C 
ATOM     20  C   UNL     1      31.653 -23.283 -15.012  0.00  0.00    -0.022 C 
ATOM     21  C   UNL     1      33.029 -23.488 -14.910  0.00  0.00    -0.003 C 
ATOM     22  C   UNL     1      31.092 -22.914 -16.234  0.00  0.00    -0.003 C 
ATOM     23  C   UNL     1      30.781 -23.460 -13.814  0.00  0.00    +0.031 C 
ENDBRANCH  14  17
ENDBRANCH   3  14
TORSDOF 3
ENDMDL
MODEL 6
REMARK VINA RESULT:      -8.8      6.289     11.034
REMARK  Name = 5503
REMARK  3 active torsions:
REMARK  status: ('A' for Active; 'I' for Inactive)
REMARK    1  A    between atoms: N_2  and  N_7
REMARK    2  A    between atoms: N_3  and  S_14
REMARK    3  A    between atoms: S_14  and  C_17
REMARK                            x       y       z     vdW  Elec       q    Type
REMARK                         _______ _______ _______ _____ _____    ______ ____
ROOT
ATOM      1  O   UNL     1      34.589 -14.749 -23.136  0.00  0.00    -0.250 OA
ATOM      2  N   UNL     1      32.793 -14.474 -21.703  0.00  0.00    -0.230 N 
ATOM      3  N   UNL     1      33.759 -16.579 -21.946  0.00  0.00    -0.168 N 
ATOM      4  C   UNL     1      33.777 -15.201 -22.333  0.00  0.00    +0.333 C 
ATOM      5  H   UNL     1      32.178 -14.911 -21.071  0.00  0.00    +0.171 HD
ATOM      6  H   UNL     1      33.053 -16.865 -21.322  0.00  0.00    +0.178 HD
ENDROOT
BRANCH   2   7
ATOM      7  N   UNL     1      32.679 -13.121 -21.970  0.00  0.00    -0.205 NA
ATOM      8  C   UNL     1      32.606 -10.296 -23.397  0.00  0.00    +0.002 C 
ATOM      9  C   UNL     1      32.267 -10.176 -21.913  0.00  0.00    +0.002 C 
ATOM     10  C   UNL     1      33.279 -11.602 -23.810  0.00  0.00    +0.019 C 
ATOM     11  C   UNL     1      31.150 -11.129 -21.500  0.00  0.00    +0.019 C 
ATOM     12  C   UNL     1      32.546 -12.885 -23.406  0.00  0.00    +0.092 C 
ATOM     13  C   UNL     1      31.613 -12.546 -21.148  0.00  0.00    +0.092 C 
ENDBRANCH   2   7
BRANCH   3  14
ATOM     14  S   UNL     1      34.863 -17.772 -22.478  0.00  0.00    +0.077 S 
ATOM     15  O   UNL     1      34.498 -18.200 -23.814  0.00  0.00    -0.150 OA
ATOM     16  O   UNL     1      36.216 -17.337 -22.190  0.00  0.00    -0.150 OA
BRANCH  14  17
ATOM     17  C   UNL     1      34.470 -19.106 -21.388  0.00  0.00    +0.125 C 
ATOM     18  C   UNL     1      35.495 -19.880 -20.870  0.00  0.00    +0.020 C 
ATOM     19  C   UNL     1      33.146 -19.353 -21.071  0.00  0.00    +0.020 C 
ATOM     20  C   UNL     1      33.856 -21.195 -19.679  0.00  0.00    -0.022 C 
ATOM     21  C   UNL     1      35.185 -20.933 -20.010  0.00  0.00    -0.003 C 
ATOM     22  C   UNL     1      32.836 -20.405 -20.209  0.00  0.00    -0.003 C 
ATOM     23  C   UNL     1      33.524 -22.322 -18.759  0.00  0.00    +0.031 C 
ENDBRANCH  14  17
ENDBRANCH   3  14
TORSDOF 3
ENDMDL
MODEL 7
REMARK VINA RESULT:      -8.4      9.273     12.453
REMARK  Name = 5503
REMARK  3 active torsions:
REMARK  status: ('A' for Active; 'I' for Inactive)
REMARK    1  A    between atoms: N_2  and  N_7
REMARK    2  A    between atoms: N_3  and  S_14
REMARK    3  A    between atoms: S_14  and  C_17
REMARK                            x       y       z     vdW  Elec       q    Type
REMARK                         _______ _______ _______ _____ _____    ______ ____
ROOT
ATOM      1  O   UNL     1      33.762 -12.364 -23.571  0.00  0.00    -0.250 OA
ATOM      2  N   UNL     1      31.657 -12.563 -22.631  0.00  0.00    -0.230 N 
ATOM      3  N   UNL     1      32.329 -14.065 -24.280  0.00  0.00    -0.168 N 
ATOM      4  C   UNL     1      32.675 -12.927 -23.483  0.00  0.00    +0.333 C 
ATOM      5  H   UNL     1      30.812 -13.068 -22.621  0.00  0.00    +0.171 HD
ATOM      6  H   UNL     1      31.423 -14.436 -24.170  0.00  0.00    +0.178 HD
ENDROOT
BRANCH   2   7
ATOM      7  N   UNL     1      31.837 -11.480 -21.791  0.00  0.00    -0.205 NA
ATOM      8  C   UNL     1      32.126  -8.554 -20.614  0.00  0.00    +0.002 C 
ATOM      9  C   UNL     1      32.255  -9.608 -19.517  0.00  0.00    +0.002 C 
ATOM     10  C   UNL     1      32.285  -9.074 -22.041  0.00  0.00    +0.019 C 
ATOM     11  C   UNL     1      31.085 -10.586 -19.518  0.00  0.00    +0.019 C 
ATOM     12  C   UNL     1      31.380 -10.246 -22.427  0.00  0.00    +0.092 C 
ATOM     13  C   UNL     1      31.234 -11.763 -20.488  0.00  0.00    +0.092 C 
ENDBRANCH   2   7
BRANCH   3  14
ATOM     14  S   UNL     1      33.358 -14.834 -25.409  0.00  0.00    +0.077 S 
ATOM     15  O   UNL     1      32.555 -15.594 -26.347  0.00  0.00    -0.150 OA
ATOM     16  O   UNL     1      34.344 -13.885 -25.885  0.00  0.00    -0.150 OA
BRANCH  14  17
ATOM     17  C   UNL     1      34.180 -16.006 -24.372  0.00  0.00    +0.125 C 
ATOM     18  C   UNL     1      34.481 -15.659 -23.066  0.00  0.00    +0.020 C 
ATOM     19  C   UNL     1      34.507 -17.250 -24.885  0.00  0.00    +0.020 C 
ATOM     20  C   UNL     1      35.466 -17.842 -22.748  0.00  0.00    -0.022 C 
ATOM     21  C   UNL     1      35.130 -16.584 -22.249  0.00  0.00    -0.003 C 
ATOM     22  C   UNL     1      35.155 -18.175 -24.066  0.00  0.00    -0.003 C 
ATOM     23  C   UNL     1      36.161 -18.831 -21.873  0.00  0.00    +0.031 C 
ENDBRANCH  14  17
ENDBRANCH   3  14
TORSDOF 3
ENDMDL
MODEL 8
REMARK VINA RESULT:      -8.4      8.839     12.056
REMARK  Name = 5503
REMARK  3 active torsions:
REMARK  status: ('A' for Active; 'I' for Inactive)
REMARK    1  A    between atoms: N_2  and  N_7
REMARK    2  A    between atoms: N_3  and  S_14
REMARK    3  A    between atoms: S_14  and  C_17
REMARK                            x       y       z     vdW  Elec       q    Type
REMARK                         _______ _______ _______ _____ _____    ______ ____
ROOT
ATOM      1  O   UNL     1      33.821 -14.438 -24.814  0.00  0.00    -0.250 OA
ATOM      2  N   UNL     1      34.539 -14.623 -22.623  0.00  0.00    -0.230 N 
ATOM      3  N   UNL     1      34.312 -12.514 -23.585  0.00  0.00    -0.168 N 
ATOM      4  C   UNL     1      34.193 -13.930 -23.760  0.00  0.00    +0.333 C 
ATOM      5  H   UNL     1      34.829 -14.141 -21.814  0.00  0.00    +0.171 HD
ATOM      6  H   UNL     1      34.649 -12.193 -22.718  0.00  0.00    +0.178 HD
ENDROOT
BRANCH   2   7
ATOM      7  N   UNL     1      34.475 -16.005 -22.630  0.00  0.00    -0.205 NA
ATOM      8  C   UNL     1      34.735 -19.060 -23.419  0.00  0.00    +0.002 C 
ATOM      9  C   UNL     1      34.079 -18.895 -22.050  0.00  0.00    +0.002 C 
ATOM     10  C   UNL     1      34.767 -17.803 -24.284  0.00  0.00    +0.019 C 
ATOM     11  C   UNL     1      34.908 -18.018 -21.117  0.00  0.00    +0.019 C 
ATOM     12  C   UNL     1      35.382 -16.562 -23.631  0.00  0.00    +0.092 C 
ATOM     13  C   UNL     1      34.668 -16.513 -21.271  0.00  0.00    +0.092 C 
ENDBRANCH   2   7
BRANCH   3  14
ATOM     14  S   UNL     1      33.917 -11.334 -24.758  0.00  0.00    +0.077 S 
ATOM     15  O   UNL     1      35.123 -10.925 -25.449  0.00  0.00    -0.150 OA
ATOM     16  O   UNL     1      32.753 -11.769 -25.504  0.00  0.00    -0.150 OA
BRANCH  14  17
ATOM     17  C   UNL     1      33.434  -9.982 -23.727  0.00  0.00    +0.125 C 
ATOM     18  C   UNL     1      34.182  -8.816 -23.747  0.00  0.00    +0.020 C 
ATOM     19  C   UNL     1      32.318 -10.112 -22.918  0.00  0.00    +0.020 C 
ATOM     20  C   UNL     1      32.678  -7.863 -22.113  0.00  0.00    -0.022 C 
ATOM     21  C   UNL     1      33.801  -7.750 -22.933  0.00  0.00    -0.003 C 
ATOM     22  C   UNL     1      31.937  -9.044 -22.106  0.00  0.00    -0.003 C 
ATOM     23  C   UNL     1      32.272  -6.722 -21.242  0.00  0.00    +0.031 C 
ENDBRANCH  14  17
ENDBRANCH   3  14
TORSDOF 3
ENDMDL
MODEL 9
REMARK VINA RESULT:      -8.4      9.023     11.965
REMARK  Name = 5503
REMARK  3 active torsions:
REMARK  status: ('A' for Active; 'I' for Inactive)
REMARK    1  A    between atoms: N_2  and  N_7
REMARK    2  A    between atoms: N_3  and  S_14
REMARK    3  A    between atoms: S_14  and  C_17
REMARK                            x       y       z     vdW  Elec       q    Type
REMARK                         _______ _______ _______ _____ _____    ______ ____
ROOT
ATOM      1  O   UNL     1      32.003 -13.489 -22.445  0.00  0.00    -0.250 OA
ATOM      2  N   UNL     1      33.480 -14.284 -20.852  0.00  0.00    -0.230 N 
ATOM      3  N   UNL     1      32.268 -12.340 -20.430  0.00  0.00    -0.168 N 
ATOM      4  C   UNL     1      32.548 -13.402 -21.349  0.00  0.00    +0.333 C 
ATOM      5  H   UNL     1      33.872 -14.144 -19.960  0.00  0.00    +0.171 HD
ATOM      6  H   UNL     1      32.774 -12.328 -19.585  0.00  0.00    +0.178 HD
ENDROOT
BRANCH   2   7
ATOM      7  N   UNL     1      33.858 -15.369 -21.621  0.00  0.00    -0.205 NA
ATOM      8  C   UNL     1      34.840 -17.227 -23.990  0.00  0.00    +0.002 C 
ATOM      9  C   UNL     1      34.580 -18.037 -22.722  0.00  0.00    +0.002 C 
ATOM     10  C   UNL     1      34.226 -15.829 -24.010  0.00  0.00    +0.019 C 
ATOM     11  C   UNL     1      35.315 -17.466 -21.513  0.00  0.00    +0.019 C 
ATOM     12  C   UNL     1      34.574 -14.933 -22.819  0.00  0.00    +0.092 C 
ATOM     13  C   UNL     1      34.577 -16.335 -20.790  0.00  0.00    +0.092 C 
ENDBRANCH   2   7
BRANCH   3  14
ATOM     14  S   UNL     1      31.126 -11.092 -20.677  0.00  0.00    +0.077 S 
ATOM     15  O   UNL     1      30.080 -11.569 -21.560  0.00  0.00    -0.150 OA
ATOM     16  O   UNL     1      30.793 -10.486 -19.403  0.00  0.00    -0.150 OA
BRANCH  14  17
ATOM     17  C   UNL     1      32.088  -9.933 -21.602  0.00  0.00    +0.125 C 
ATOM     18  C   UNL     1      32.478 -10.255 -22.891  0.00  0.00    +0.020 C 
ATOM     19  C   UNL     1      32.434  -8.724 -21.021  0.00  0.00    +0.020 C 
ATOM     20  C   UNL     1      33.594  -8.117 -23.051  0.00  0.00    -0.022 C 
ATOM     21  C   UNL     1      33.238  -9.340 -23.620  0.00  0.00    -0.003 C 
ATOM     22  C   UNL     1      33.192  -7.810 -21.752  0.00  0.00    -0.003 C 
ATOM     23  C   UNL     1      34.407  -7.140 -23.831  0.00  0.00    +0.031 C 
ENDBRANCH  14  17
ENDBRANCH   3  14
TORSDOF 3
ENDMDL
