MODEL 1
REMARK VINA RESULT:      -9.8      0.000      0.000
REMARK  Name = 3158
REMARK  3 active torsions:
REMARK  status: ('A' for Active; 'I' for Inactive)
REMARK    1  A    between atoms: C_6  and  C_17
REMARK    2  A    between atoms: C_17  and  C_18
REMARK    3  A    between atoms: C_18  and  N_19
REMARK                            x       y       z     vdW  Elec       q    Type
REMARK                         _______ _______ _______ _____ _____    ______ ____
ROOT
ATOM      1  O   UNL     1      32.386 -22.745 -17.823  0.00  0.00    -0.471 OA
ATOM      2  C   UNL     1      34.355 -23.651 -15.647  0.00  0.00    -0.002 C 
ATOM      3  C   UNL     1      35.192 -22.840 -16.561  0.00  0.00    -0.001 C 
ATOM      4  C   UNL     1      32.886 -23.451 -15.482  0.00  0.00    +0.034 C 
ATOM      5  C   UNL     1      34.793 -22.713 -17.902  0.00  0.00    +0.021 C 
ATOM      6  C   UNL     1      34.964 -24.686 -15.037  0.00  0.00    -0.028 C 
ATOM      7  C   UNL     1      33.535 -23.394 -18.362  0.00  0.00    +0.232 C 
ATOM      8  C   UNL     1      32.039 -23.018 -16.523  0.00  0.00    +0.139 C 
ATOM      9  C   UNL     1      36.352 -22.187 -16.119  0.00  0.00    -0.000 C 
ATOM     10  C   UNL     1      35.561 -21.941 -18.784  0.00  0.00    -0.001 C 
ATOM     11  C   UNL     1      32.318 -23.616 -14.200  0.00  0.00    +0.003 C 
ATOM     12  C   UNL     1      30.678 -22.772 -16.267  0.00  0.00    +0.037 C 
ATOM     13  C   UNL     1      37.111 -21.424 -17.006  0.00  0.00    -0.000 C 
ATOM     14  C   UNL     1      36.717 -21.302 -18.336  0.00  0.00    -0.000 C 
ATOM     15  C   UNL     1      30.961 -23.385 -13.962  0.00  0.00    +0.000 C 
ATOM     16  C   UNL     1      30.140 -22.963 -14.997  0.00  0.00    +0.003 C 
ENDROOT
BRANCH   6  17
ATOM     17  C   UNL     1      36.403 -25.039 -15.239  0.00  0.00    +0.003 C 
BRANCH  17  18
ATOM     18  C   UNL     1      36.655 -26.513 -14.924  0.00  0.00    -0.073 C 
BRANCH  18  19
ATOM     19  N   UNL     1      37.767 -26.647 -13.990  0.00  0.00    +0.384 N 
ATOM     20  C   UNL     1      37.380 -26.186 -12.657  0.00  0.00    -0.101 C 
ATOM     21  C   UNL     1      38.933 -25.900 -14.467  0.00  0.00    -0.101 C 
ATOM     22  H   UNL     1      38.017 -27.634 -13.931  0.00  0.00    -0.080 HD
ENDBRANCH  18  19
ENDBRANCH  17  18
ENDBRANCH   6  17
TORSDOF 3
ENDMDL
MODEL 2
REMARK VINA RESULT:      -9.6     14.451     16.829
REMARK  Name = 3158
REMARK  3 active torsions:
REMARK  status: ('A' for Active; 'I' for Inactive)
REMARK    1  A    between atoms: C_6  and  C_17
REMARK    2  A    between atoms: C_17  and  C_18
REMARK    3  A    between atoms: C_18  and  N_19
REMARK                            x       y       z     vdW  Elec       q    Type
REMARK                         _______ _______ _______ _____ _____    ______ ____
ROOT
ATOM      1  O   UNL     1      31.920  -6.631 -20.709  0.00  0.00    -0.471 OA
ATOM      2  C   UNL     1      32.282  -8.719 -22.934  0.00  0.00    -0.002 C 
ATOM      3  C   UNL     1      31.886  -9.526 -21.756  0.00  0.00    -0.001 C 
ATOM      4  C   UNL     1      31.897  -7.289 -23.117  0.00  0.00    +0.034 C 
ATOM      5  C   UNL     1      32.150  -9.017 -20.473  0.00  0.00    +0.021 C 
ATOM      6  C   UNL     1      33.126  -9.304 -23.805  0.00  0.00    -0.028 C 
ATOM      7  C   UNL     1      32.815  -7.676 -20.337  0.00  0.00    +0.232 C 
ATOM      8  C   UNL     1      31.734  -6.384 -22.048  0.00  0.00    +0.139 C 
ATOM      9  C   UNL     1      31.244 -10.765 -21.890  0.00  0.00    -0.000 C 
ATOM     10  C   UNL     1      31.774  -9.755 -19.344  0.00  0.00    -0.001 C 
ATOM     11  C   UNL     1      31.594  -6.829 -24.417  0.00  0.00    +0.003 C 
ATOM     12  C   UNL     1      31.289  -5.073 -22.295  0.00  0.00    +0.037 C 
ATOM     13  C   UNL     1      30.876 -11.493 -20.759  0.00  0.00    -0.000 C 
ATOM     14  C   UNL     1      31.142 -10.990 -19.489  0.00  0.00    -0.000 C 
ATOM     15  C   UNL     1      31.169  -5.520 -24.652  0.00  0.00    +0.000 C 
ATOM     16  C   UNL     1      31.017  -4.641 -23.590  0.00  0.00    +0.003 C 
ENDROOT
BRANCH   6  17
ATOM     17  C   UNL     1      33.664 -10.689 -23.637  0.00  0.00    +0.003 C 
BRANCH  17  18
ATOM     18  C   UNL     1      33.779 -11.399 -24.985  0.00  0.00    -0.073 C 
BRANCH  18  19
ATOM     19  N   UNL     1      33.940 -12.835 -24.788  0.00  0.00    +0.384 N 
ATOM     20  C   UNL     1      33.138 -13.581 -25.758  0.00  0.00    -0.101 C 
ATOM     21  C   UNL     1      33.568 -13.212 -23.423  0.00  0.00    -0.101 C 
ATOM     22  H   UNL     1      34.922 -13.069 -24.933  0.00  0.00    -0.080 HD
ENDBRANCH  18  19
ENDBRANCH  17  18
ENDBRANCH   6  17
TORSDOF 3
ENDMDL
MODEL 3
REMARK VINA RESULT:      -8.9      2.357      5.395
REMARK  Name = 3158
REMARK  3 active torsions:
REMARK  status: ('A' for Active; 'I' for Inactive)
REMARK    1  A    between atoms: C_6  and  C_17
REMARK    2  A    between atoms: C_17  and  C_18
REMARK    3  A    between atoms: C_18  and  N_19
REMARK                            x       y       z     vdW  Elec       q    Type
REMARK                         _______ _______ _______ _____ _____    ______ ____
ROOT
ATOM      1  O   UNL     1      38.031 -22.981 -15.997  0.00  0.00    -0.471 OA
ATOM      2  C   UNL     1      35.126 -23.762 -15.372  0.00  0.00    -0.002 C 
ATOM      3  C   UNL     1      35.037 -23.113 -16.701  0.00  0.00    -0.001 C 
ATOM      4  C   UNL     1      36.354 -24.449 -14.874  0.00  0.00    +0.034 C 
ATOM      5  C   UNL     1      36.024 -22.180 -17.061  0.00  0.00    +0.021 C 
ATOM      6  C   UNL     1      34.067 -23.605 -14.556  0.00  0.00    -0.028 C 
ATOM      7  C   UNL     1      37.135 -21.877 -16.096  0.00  0.00    +0.232 C 
ATOM      8  C   UNL     1      37.662 -24.046 -15.212  0.00  0.00    +0.139 C 
ATOM      9  C   UNL     1      34.011 -23.420 -17.606  0.00  0.00    -0.000 C 
ATOM     10  C   UNL     1      35.968 -21.562 -18.317  0.00  0.00    -0.001 C 
ATOM     11  C   UNL     1      36.209 -25.616 -14.093  0.00  0.00    +0.003 C 
ATOM     12  C   UNL     1      38.767 -24.795 -14.769  0.00  0.00    +0.037 C 
ATOM     13  C   UNL     1      33.963 -22.797 -18.853  0.00  0.00    -0.000 C 
ATOM     14  C   UNL     1      34.939 -21.869 -19.207  0.00  0.00    -0.000 C 
ATOM     15  C   UNL     1      37.314 -26.342 -13.645  0.00  0.00    +0.000 C 
ATOM     16  C   UNL     1      38.595 -25.931 -13.983  0.00  0.00    +0.003 C 
ENDROOT
BRANCH   6  17
ATOM     17  C   UNL     1      32.844 -22.826 -14.923  0.00  0.00    +0.003 C 
BRANCH  17  18
ATOM     18  C   UNL     1      31.692 -23.133 -13.967  0.00  0.00    -0.073 C 
BRANCH  18  19
ATOM     19  N   UNL     1      30.519 -23.572 -14.714  0.00  0.00    +0.384 N 
ATOM     20  C   UNL     1      30.422 -25.032 -14.710  0.00  0.00    -0.101 C 
ATOM     21  C   UNL     1      30.567 -23.070 -16.089  0.00  0.00    -0.101 C 
ATOM     22  H   UNL     1      29.690 -23.191 -14.259  0.00  0.00    -0.080 HD
ENDBRANCH  18  19
ENDBRANCH  17  18
ENDBRANCH   6  17
TORSDOF 3
ENDMDL
MODEL 4
REMARK VINA RESULT:      -8.3     14.764     17.530
REMARK  Name = 3158
REMARK  3 active torsions:
REMARK  status: ('A' for Active; 'I' for Inactive)
REMARK    1  A    between atoms: C_6  and  C_17
REMARK    2  A    between atoms: C_17  and  C_18
REMARK    3  A    between atoms: C_18  and  N_19
REMARK                            x       y       z     vdW  Elec       q    Type
REMARK                         _______ _______ _______ _____ _____    ______ ____
ROOT
ATOM      1  O   UNL     1      32.325 -11.598 -23.269  0.00  0.00    -0.471 OA
ATOM      2  C   UNL     1      32.756  -8.673 -22.435  0.00  0.00    -0.002 C 
ATOM      3  C   UNL     1      32.230  -9.314 -21.208  0.00  0.00    -0.001 C 
ATOM      4  C   UNL     1      33.510  -9.412 -23.490  0.00  0.00    +0.034 C 
ATOM      5  C   UNL     1      31.436 -10.466 -21.338  0.00  0.00    +0.021 C 
ATOM      6  C   UNL     1      32.420  -7.384 -22.629  0.00  0.00    -0.028 C 
ATOM      7  C   UNL     1      31.153 -11.012 -22.710  0.00  0.00    +0.232 C 
ATOM      8  C   UNL     1      33.270 -10.764 -23.814  0.00  0.00    +0.139 C 
ATOM      9  C   UNL     1      32.519  -8.814 -19.930  0.00  0.00    -0.000 C 
ATOM     10  C   UNL     1      30.937 -11.098 -20.192  0.00  0.00    -0.001 C 
ATOM     11  C   UNL     1      34.579  -8.761 -24.143  0.00  0.00    +0.003 C 
ATOM     12  C   UNL     1      34.079 -11.415 -24.763  0.00  0.00    +0.037 C 
ATOM     13  C   UNL     1      32.014  -9.449 -18.795  0.00  0.00    -0.000 C 
ATOM     14  C   UNL     1      31.224 -10.587 -18.926  0.00  0.00    -0.000 C 
ATOM     15  C   UNL     1      35.364  -9.413 -25.096  0.00  0.00    +0.000 C 
ATOM     16  C   UNL     1      35.113 -10.741 -25.407  0.00  0.00    +0.003 C 
ENDROOT
BRANCH   6  17
ATOM     17  C   UNL     1      31.564  -6.599 -21.688  0.00  0.00    +0.003 C 
BRANCH  17  18
ATOM     18  C   UNL     1      30.620  -5.669 -22.451  0.00  0.00    -0.073 C 
BRANCH  18  19
ATOM     19  N   UNL     1      31.377  -4.818 -23.362  0.00  0.00    +0.384 N 
ATOM     20  C   UNL     1      31.261  -3.413 -22.970  0.00  0.00    -0.101 C 
ATOM     21  C   UNL     1      30.914  -5.001 -24.739  0.00  0.00    -0.101 C 
ATOM     22  H   UNL     1      32.358  -5.089 -23.311  0.00  0.00    -0.080 HD
ENDBRANCH  18  19
ENDBRANCH  17  18
ENDBRANCH   6  17
TORSDOF 3
ENDMDL
MODEL 5
REMARK VINA RESULT:      -8.1      6.617      9.590
REMARK  Name = 3158
REMARK  3 active torsions:
REMARK  status: ('A' for Active; 'I' for Inactive)
REMARK    1  A    between atoms: C_6  and  C_17
REMARK    2  A    between atoms: C_17  and  C_18
REMARK    3  A    between atoms: C_18  and  N_19
REMARK                            x       y       z     vdW  Elec       q    Type
REMARK                         _______ _______ _______ _____ _____    ______ ____
ROOT
ATOM      1  O   UNL     1      32.565 -19.667 -20.094  0.00  0.00    -0.471 OA
ATOM      2  C   UNL     1      34.945 -18.419 -21.582  0.00  0.00    -0.002 C 
ATOM      3  C   UNL     1      34.151 -17.248 -21.145  0.00  0.00    -0.001 C 
ATOM      4  C   UNL     1      34.937 -19.730 -20.870  0.00  0.00    +0.034 C 
ATOM      5  C   UNL     1      32.774 -17.415 -20.920  0.00  0.00    +0.021 C 
ATOM      6  C   UNL     1      35.605 -18.294 -22.750  0.00  0.00    -0.028 C 
ATOM      7  C   UNL     1      32.156 -18.769 -21.122  0.00  0.00    +0.232 C 
ATOM      8  C   UNL     1      33.810 -20.239 -20.192  0.00  0.00    +0.139 C 
ATOM      9  C   UNL     1      34.739 -15.992 -20.935  0.00  0.00    -0.000 C 
ATOM     10  C   UNL     1      32.004 -16.325 -20.495  0.00  0.00    -0.001 C 
ATOM     11  C   UNL     1      36.139 -20.466 -20.789  0.00  0.00    +0.003 C 
ATOM     12  C   UNL     1      33.905 -21.444 -19.472  0.00  0.00    +0.037 C 
ATOM     13  C   UNL     1      33.963 -14.913 -20.514  0.00  0.00    -0.000 C 
ATOM     14  C   UNL     1      32.598 -15.079 -20.295  0.00  0.00    -0.000 C 
ATOM     15  C   UNL     1      36.217 -21.670 -20.086  0.00  0.00    +0.000 C 
ATOM     16  C   UNL     1      35.098 -22.160 -19.427  0.00  0.00    +0.003 C 
ENDROOT
BRANCH   6  17
ATOM     17  C   UNL     1      35.570 -17.061 -23.595  0.00  0.00    +0.003 C 
BRANCH  17  18
ATOM     18  C   UNL     1      34.544 -17.197 -24.719  0.00  0.00    -0.073 C 
BRANCH  18  19
ATOM     19  N   UNL     1      34.182 -15.882 -25.235  0.00  0.00    +0.384 N 
ATOM     20  C   UNL     1      33.760 -15.000 -24.147  0.00  0.00    -0.101 C 
ATOM     21  C   UNL     1      33.119 -15.997 -26.236  0.00  0.00    -0.101 C 
ATOM     22  H   UNL     1      35.004 -15.476 -25.681  0.00  0.00    -0.080 HD
ENDBRANCH  18  19
ENDBRANCH  17  18
ENDBRANCH   6  17
TORSDOF 3
ENDMDL
MODEL 6
REMARK VINA RESULT:      -7.9      2.184      4.820
REMARK  Name = 3158
REMARK  3 active torsions:
REMARK  status: ('A' for Active; 'I' for Inactive)
REMARK    1  A    between atoms: C_6  and  C_17
REMARK    2  A    between atoms: C_17  and  C_18
REMARK    3  A    between atoms: C_18  and  N_19
REMARK                            x       y       z     vdW  Elec       q    Type
REMARK                         _______ _______ _______ _____ _____    ______ ____
ROOT
ATOM      1  O   UNL     1      33.443 -24.208 -12.626  0.00  0.00    -0.471 OA
ATOM      2  C   UNL     1      34.677 -23.652 -15.384  0.00  0.00    -0.002 C 
ATOM      3  C   UNL     1      35.658 -24.554 -14.736  0.00  0.00    -0.001 C 
ATOM      4  C   UNL     1      33.224 -23.640 -15.047  0.00  0.00    +0.034 C 
ATOM      5  C   UNL     1      35.714 -24.589 -13.333  0.00  0.00    +0.021 C 
ATOM      6  C   UNL     1      35.177 -22.732 -16.231  0.00  0.00    -0.028 C 
ATOM      7  C   UNL     1      34.780 -23.721 -12.538  0.00  0.00    +0.232 C 
ATOM      8  C   UNL     1      32.722 -23.919 -13.759  0.00  0.00    +0.139 C 
ATOM      9  C   UNL     1      36.509 -25.379 -15.484  0.00  0.00    -0.000 C 
ATOM     10  C   UNL     1      36.624 -25.442 -12.697  0.00  0.00    -0.001 C 
ATOM     11  C   UNL     1      32.288 -23.425 -16.082  0.00  0.00    +0.003 C 
ATOM     12  C   UNL     1      31.333 -23.971 -13.539  0.00  0.00    +0.037 C 
ATOM     13  C   UNL     1      37.414 -26.223 -14.841  0.00  0.00    -0.000 C 
ATOM     14  C   UNL     1      37.472 -26.254 -13.450  0.00  0.00    -0.000 C 
ATOM     15  C   UNL     1      30.912 -23.461 -15.848  0.00  0.00    +0.000 C 
ATOM     16  C   UNL     1      30.434 -23.734 -14.575  0.00  0.00    +0.003 C 
ENDROOT
BRANCH   6  17
ATOM     17  C   UNL     1      36.634 -22.588 -16.534  0.00  0.00    +0.003 C 
BRANCH  17  18
ATOM     18  C   UNL     1      36.883 -21.418 -17.485  0.00  0.00    -0.073 C 
BRANCH  18  19
ATOM     19  N   UNL     1      36.494 -21.780 -18.844  0.00  0.00    +0.384 N 
ATOM     20  C   UNL     1      36.942 -20.763 -19.796  0.00  0.00    -0.101 C 
ATOM     21  C   UNL     1      35.043 -21.955 -18.934  0.00  0.00    -0.101 C 
ATOM     22  H   UNL     1      36.943 -22.664 -19.079  0.00  0.00    -0.080 HD
ENDBRANCH  18  19
ENDBRANCH  17  18
ENDBRANCH   6  17
TORSDOF 3
ENDMDL
MODEL 7
REMARK VINA RESULT:      -7.7     14.341     17.012
REMARK  Name = 3158
REMARK  3 active torsions:
REMARK  status: ('A' for Active; 'I' for Inactive)
REMARK    1  A    between atoms: C_6  and  C_17
REMARK    2  A    between atoms: C_17  and  C_18
REMARK    3  A    between atoms: C_18  and  N_19
REMARK                            x       y       z     vdW  Elec       q    Type
REMARK                         _______ _______ _______ _____ _____    ______ ____
ROOT
ATOM      1  O   UNL     1      31.931 -12.436 -22.072  0.00  0.00    -0.471 OA
ATOM      2  C   UNL     1      32.206  -9.541 -23.060  0.00  0.00    -0.002 C 
ATOM      3  C   UNL     1      32.019  -9.396 -21.598  0.00  0.00    -0.001 C 
ATOM      4  C   UNL     1      32.799 -10.752 -23.697  0.00  0.00    +0.034 C 
ATOM      5  C   UNL     1      31.346 -10.414 -20.902  0.00  0.00    +0.021 C 
ATOM      6  C   UNL     1      31.698  -8.559 -23.829  0.00  0.00    -0.028 C 
ATOM      7  C   UNL     1      30.845 -11.613 -21.657  0.00  0.00    +0.232 C 
ATOM      8  C   UNL     1      32.646 -12.056 -23.182  0.00  0.00    +0.139 C 
ATOM      9  C   UNL     1      32.512  -8.287 -20.895  0.00  0.00    -0.000 C 
ATOM     10  C   UNL     1      31.168 -10.307 -19.517  0.00  0.00    -0.001 C 
ATOM     11  C   UNL     1      33.632 -10.588 -24.825  0.00  0.00    +0.003 C 
ATOM     12  C   UNL     1      33.305 -13.138 -23.793  0.00  0.00    +0.037 C 
ATOM     13  C   UNL     1      32.326  -8.188 -19.516  0.00  0.00    -0.000 C 
ATOM     14  C   UNL     1      31.654  -9.196 -18.829  0.00  0.00    -0.000 C 
ATOM     15  C   UNL     1      34.267 -11.672 -25.434  0.00  0.00    +0.000 C 
ATOM     16  C   UNL     1      34.103 -12.949 -24.918  0.00  0.00    +0.003 C 
ENDROOT
BRANCH   6  17
ATOM     17  C   UNL     1      30.976  -7.368 -23.285  0.00  0.00    +0.003 C 
BRANCH  17  18
ATOM     18  C   UNL     1      31.598  -6.069 -23.797  0.00  0.00    -0.073 C 
BRANCH  18  19
ATOM     19  N   UNL     1      31.512  -5.030 -22.777  0.00  0.00    +0.384 N 
ATOM     20  C   UNL     1      30.434  -5.323 -21.832  0.00  0.00    -0.101 C 
ATOM     21  C   UNL     1      31.303  -3.719 -23.395  0.00  0.00    -0.101 C 
ATOM     22  H   UNL     1      32.394  -5.011 -22.266  0.00  0.00    -0.080 HD
ENDBRANCH  18  19
ENDBRANCH  17  18
ENDBRANCH   6  17
TORSDOF 3
ENDMDL
MODEL 8
REMARK VINA RESULT:      -7.6     10.859     13.379
REMARK  Name = 3158
REMARK  3 active torsions:
REMARK  status: ('A' for Active; 'I' for Inactive)
REMARK    1  A    between atoms: C_6  and  C_17
REMARK    2  A    between atoms: C_17  and  C_18
REMARK    3  A    between atoms: C_18  and  N_19
REMARK                            x       y       z     vdW  Elec       q    Type
REMARK                         _______ _______ _______ _____ _____    ______ ____
ROOT
ATOM      1  O   UNL     1      33.592 -11.042 -25.242  0.00  0.00    -0.471 OA
ATOM      2  C   UNL     1      33.220 -13.365 -23.267  0.00  0.00    -0.002 C 
ATOM      3  C   UNL     1      32.598 -12.213 -22.575  0.00  0.00    -0.001 C 
ATOM      4  C   UNL     1      33.322 -13.474 -24.752  0.00  0.00    +0.034 C 
ATOM      5  C   UNL     1      33.030 -10.918 -22.903  0.00  0.00    +0.021 C 
ATOM      6  C   UNL     1      33.814 -14.286 -22.484  0.00  0.00    -0.028 C 
ATOM      7  C   UNL     1      34.100 -10.742 -23.944  0.00  0.00    +0.232 C 
ATOM      8  C   UNL     1      33.479 -12.362 -25.604  0.00  0.00    +0.139 C 
ATOM      9  C   UNL     1      31.583 -12.383 -21.622  0.00  0.00    -0.000 C 
ATOM     10  C   UNL     1      32.449  -9.811 -22.271  0.00  0.00    -0.001 C 
ATOM     11  C   UNL     1      33.169 -14.743 -25.352  0.00  0.00    +0.003 C 
ATOM     12  C   UNL     1      33.484 -12.538 -26.999  0.00  0.00    +0.037 C 
ATOM     13  C   UNL     1      31.012 -11.275 -20.996  0.00  0.00    -0.000 C 
ATOM     14  C   UNL     1      31.445  -9.992 -21.319  0.00  0.00    -0.000 C 
ATOM     15  C   UNL     1      33.194 -14.908 -26.738  0.00  0.00    +0.000 C 
ATOM     16  C   UNL     1      33.352 -13.804 -27.563  0.00  0.00    +0.003 C 
ENDROOT
BRANCH   6  17
ATOM     17  C   UNL     1      33.870 -14.195 -20.993  0.00  0.00    +0.003 C 
BRANCH  17  18
ATOM     18  C   UNL     1      34.493 -15.454 -20.390  0.00  0.00    -0.073 C 
BRANCH  18  19
ATOM     19  N   UNL     1      34.248 -16.603 -21.254  0.00  0.00    +0.384 N 
ATOM     20  C   UNL     1      32.993 -17.261 -20.892  0.00  0.00    -0.101 C 
ATOM     21  C   UNL     1      35.360 -17.552 -21.175  0.00  0.00    -0.101 C 
ATOM     22  H   UNL     1      34.174 -16.269 -22.215  0.00  0.00    -0.080 HD
ENDBRANCH  18  19
ENDBRANCH  17  18
ENDBRANCH   6  17
TORSDOF 3
ENDMDL
MODEL 9
REMARK VINA RESULT:      -7.5     17.005     19.486
REMARK  Name = 3158
REMARK  3 active torsions:
REMARK  status: ('A' for Active; 'I' for Inactive)
REMARK    1  A    between atoms: C_6  and  C_17
REMARK    2  A    between atoms: C_17  and  C_18
REMARK    3  A    between atoms: C_18  and  N_19
REMARK                            x       y       z     vdW  Elec       q    Type
REMARK                         _______ _______ _______ _____ _____    ______ ____
ROOT
ATOM      1  O   UNL     1      34.514  -8.965 -24.105  0.00  0.00    -0.471 OA
ATOM      2  C   UNL     1      32.295  -7.003 -23.293  0.00  0.00    -0.002 C 
ATOM      3  C   UNL     1      32.927  -6.352 -24.464  0.00  0.00    -0.001 C 
ATOM      4  C   UNL     1      32.294  -8.479 -23.073  0.00  0.00    +0.034 C 
ATOM      5  C   UNL     1      34.263  -6.662 -24.765  0.00  0.00    +0.021 C 
ATOM      6  C   UNL     1      31.807  -6.183 -22.342  0.00  0.00    -0.028 C 
ATOM      7  C   UNL     1      35.004  -7.643 -23.899  0.00  0.00    +0.232 C 
ATOM      8  C   UNL     1      33.343  -9.327 -23.486  0.00  0.00    +0.139 C 
ATOM      9  C   UNL     1      32.222  -5.458 -25.282  0.00  0.00    -0.000 C 
ATOM     10  C   UNL     1      34.880  -6.069 -25.874  0.00  0.00    -0.001 C 
ATOM     11  C   UNL     1      31.151  -9.080 -22.503  0.00  0.00    +0.003 C 
ATOM     12  C   UNL     1      33.232 -10.719 -23.318  0.00  0.00    +0.037 C 
ATOM     13  C   UNL     1      32.846  -4.870 -26.383  0.00  0.00    -0.000 C 
ATOM     14  C   UNL     1      34.173  -5.175 -26.677  0.00  0.00    -0.000 C 
ATOM     15  C   UNL     1      31.060 -10.462 -22.325  0.00  0.00    +0.000 C 
ATOM     16  C   UNL     1      32.102 -11.282 -22.732  0.00  0.00    +0.003 C 
ENDROOT
BRANCH   6  17
ATOM     17  C   UNL     1      31.875  -4.691 -22.418  0.00  0.00    +0.003 C 
BRANCH  17  18
ATOM     18  C   UNL     1      30.477  -4.076 -22.385  0.00  0.00    -0.073 C 
BRANCH  18  19
ATOM     19  N   UNL     1      30.461  -2.816 -23.119  0.00  0.00    +0.384 N 
ATOM     20  C   UNL     1      31.825  -2.378 -23.419  0.00  0.00    -0.101 C 
ATOM     21  C   UNL     1      29.754  -1.786 -22.356  0.00  0.00    -0.101 C 
ATOM     22  H   UNL     1      29.968  -2.964 -23.998  0.00  0.00    -0.080 HD
ENDBRANCH  18  19
ENDBRANCH  17  18
ENDBRANCH   6  17
TORSDOF 3
ENDMDL
