MODEL 1
REMARK VINA RESULT:     -10.4      0.000      0.000
REMARK  Name = 157839
REMARK  5 active torsions:
REMARK  status: ('A' for Active; 'I' for Inactive)
REMARK    1  A    between atoms: N_1  and  C_23
REMARK    2  A    between atoms: C_2  and  C_10
REMARK    3  A    between atoms: C_10  and  C_16
REMARK    4  A    between atoms: C_23  and  C_25
REMARK    5  A    between atoms: C_25  and  O_26
REMARK                            x       y       z     vdW  Elec       q    Type
REMARK                         _______ _______ _______ _____ _____    ______ ____
ROOT
ATOM      1  N   UNL     1      34.303 -23.257 -14.996  0.00  0.00    -0.276 N 
ATOM      2  C   UNL     1      33.642 -23.322 -17.114  0.00  0.00    +0.001 C 
ATOM      3  C   UNL     1      32.485 -23.248 -16.288  0.00  0.00    +0.011 C 
ATOM      4  C   UNL     1      32.928 -23.209 -14.965  0.00  0.00    +0.052 C 
ATOM      5  C   UNL     1      34.744 -23.326 -16.291  0.00  0.00    +0.062 C 
ATOM      6  C   UNL     1      31.099 -23.211 -16.541  0.00  0.00    +0.001 C 
ATOM      7  C   UNL     1      32.052 -23.134 -13.876  0.00  0.00    +0.015 C 
ATOM      8  C   UNL     1      30.211 -23.136 -15.462  0.00  0.00    +0.000 C 
ATOM      9  C   UNL     1      30.681 -23.098 -14.152  0.00  0.00    +0.001 C 
ENDROOT
BRANCH   2  10
ATOM     10  C   UNL     1      33.665 -23.384 -18.590  0.00  0.00    +0.093 C 
BRANCH  10  16
ATOM     11  S   UNL     1      35.743 -21.837 -19.518  0.00  0.00    -0.073 S 
ATOM     12  F   UNL     1      32.096 -18.773 -20.786  0.00  0.00    -0.199 F 
ATOM     13  F   UNL     1      37.541 -19.528 -20.807  0.00  0.00    -0.207 F 
ATOM     14  F   UNL     1      33.752 -16.888 -21.852  0.00  0.00    -0.202 F 
ATOM     15  N   UNL     1      33.250 -21.194 -19.657  0.00  0.00    -0.400 NA
ATOM     16  C   UNL     1      34.091 -22.091 -19.268  0.00  0.00    +0.139 C 
ATOM     17  C   UNL     1      33.965 -20.154 -20.231  0.00  0.00    +0.155 C 
ATOM     18  C   UNL     1      35.352 -20.325 -20.248  0.00  0.00    +0.158 C 
ATOM     19  C   UNL     1      33.421 -18.974 -20.782  0.00  0.00    +0.194 C 
ATOM     20  C   UNL     1      36.212 -19.359 -20.796  0.00  0.00    +0.137 C 
ATOM     21  C   UNL     1      34.271 -18.008 -21.329  0.00  0.00    +0.172 C 
ATOM     22  C   UNL     1      35.647 -18.199 -21.334  0.00  0.00    +0.058 C 
ENDBRANCH  10  16
ENDBRANCH   2  10
BRANCH   1  23
ATOM     23  C   UNL     1      35.173 -23.239 -13.840  0.00  0.00    +0.206 C 
BRANCH  23  25
ATOM     24  O   UNL     1      36.332 -25.379 -13.735  0.00  0.00    -0.248 OA
ATOM     25  C   UNL     1      35.468 -24.620 -13.322  0.00  0.00    +0.335 C 
BRANCH  25  26
ATOM     26  O   UNL     1      34.621 -24.925 -12.306  0.00  0.00    -0.479 OA
ATOM     27  H   UNL     1      34.222 -24.239 -11.807  0.00  0.00    +0.295 HD
ENDBRANCH  25  26
ENDBRANCH  23  25
ENDBRANCH   1  23
TORSDOF 5
ENDMDL
MODEL 2
REMARK VINA RESULT:     -10.3      6.361      9.889
REMARK  Name = 157839
REMARK  5 active torsions:
REMARK  status: ('A' for Active; 'I' for Inactive)
REMARK    1  A    between atoms: N_1  and  C_23
REMARK    2  A    between atoms: C_2  and  C_10
REMARK    3  A    between atoms: C_10  and  C_16
REMARK    4  A    between atoms: C_23  and  C_25
REMARK    5  A    between atoms: C_25  and  O_26
REMARK                            x       y       z     vdW  Elec       q    Type
REMARK                         _______ _______ _______ _____ _____    ______ ____
ROOT
ATOM      1  N   UNL     1      33.448 -15.156 -24.694  0.00  0.00    -0.276 N 
ATOM      2  C   UNL     1      34.927 -16.426 -23.634  0.00  0.00    +0.001 C 
ATOM      3  C   UNL     1      34.263 -15.618 -22.669  0.00  0.00    +0.011 C 
ATOM      4  C   UNL     1      33.340 -14.831 -23.361  0.00  0.00    +0.052 C 
ATOM      5  C   UNL     1      34.406 -16.119 -24.869  0.00  0.00    +0.062 C 
ATOM      6  C   UNL     1      34.358 -15.481 -21.270  0.00  0.00    +0.001 C 
ATOM      7  C   UNL     1      32.504 -13.909 -22.721  0.00  0.00    +0.015 C 
ATOM      8  C   UNL     1      33.527 -14.563 -20.617  0.00  0.00    +0.000 C 
ATOM      9  C   UNL     1      32.616 -13.790 -21.332  0.00  0.00    +0.001 C 
ENDROOT
BRANCH   2  10
ATOM     10  C   UNL     1      35.989 -17.418 -23.367  0.00  0.00    +0.093 C 
BRANCH  10  16
ATOM     11  S   UNL     1      36.891 -19.150 -21.428  0.00  0.00    -0.073 S 
ATOM     12  F   UNL     1      32.089 -20.151 -20.946  0.00  0.00    -0.199 F 
ATOM     13  F   UNL     1      37.131 -21.328 -19.098  0.00  0.00    -0.207 F 
ATOM     14  F   UNL     1      32.444 -21.988 -18.963  0.00  0.00    -0.202 F 
ATOM     15  N   UNL     1      34.417 -18.820 -22.075  0.00  0.00    -0.400 NA
ATOM     16  C   UNL     1      35.631 -18.456 -22.314  0.00  0.00    +0.139 C 
ATOM     17  C   UNL     1      34.445 -19.771 -21.066  0.00  0.00    +0.155 C 
ATOM     18  C   UNL     1      35.717 -20.085 -20.580  0.00  0.00    +0.158 C 
ATOM     19  C   UNL     1      33.325 -20.426 -20.508  0.00  0.00    +0.194 C 
ATOM     20  C   UNL     1      35.908 -21.030 -19.558  0.00  0.00    +0.137 C 
ATOM     21  C   UNL     1      33.509 -21.367 -19.491  0.00  0.00    +0.172 C 
ATOM     22  C   UNL     1      34.784 -21.664 -19.024  0.00  0.00    +0.058 C 
ENDBRANCH  10  16
ENDBRANCH   2  10
BRANCH   1  23
ATOM     23  C   UNL     1      32.671 -14.575 -25.768  0.00  0.00    +0.206 C 
BRANCH  23  25
ATOM     24  O   UNL     1      33.599 -12.328 -25.931  0.00  0.00    -0.248 OA
ATOM     25  C   UNL     1      33.378 -13.423 -26.427  0.00  0.00    +0.335 C 
BRANCH  25  26
ATOM     26  O   UNL     1      33.748 -13.767 -27.687  0.00  0.00    -0.479 OA
ATOM     27  H   UNL     1      33.210 -13.527 -28.416  0.00  0.00    +0.295 HD
ENDBRANCH  25  26
ENDBRANCH  23  25
ENDBRANCH   1  23
TORSDOF 5
ENDMDL
MODEL 3
REMARK VINA RESULT:     -10.2      8.252     12.150
REMARK  Name = 157839
REMARK  5 active torsions:
REMARK  status: ('A' for Active; 'I' for Inactive)
REMARK    1  A    between atoms: N_1  and  C_23
REMARK    2  A    between atoms: C_2  and  C_10
REMARK    3  A    between atoms: C_10  and  C_16
REMARK    4  A    between atoms: C_23  and  C_25
REMARK    5  A    between atoms: C_25  and  O_26
REMARK                            x       y       z     vdW  Elec       q    Type
REMARK                         _______ _______ _______ _____ _____    ______ ____
ROOT
ATOM      1  N   UNL     1      32.044 -10.517 -22.138  0.00  0.00    -0.276 N 
ATOM      2  C   UNL     1      33.176 -11.410 -23.825  0.00  0.00    +0.001 C 
ATOM      3  C   UNL     1      33.614 -10.065 -23.658  0.00  0.00    +0.011 C 
ATOM      4  C   UNL     1      32.888  -9.529 -22.593  0.00  0.00    +0.052 C 
ATOM      5  C   UNL     1      32.210 -11.657 -22.878  0.00  0.00    +0.062 C 
ATOM      6  C   UNL     1      34.561  -9.253 -24.311  0.00  0.00    +0.001 C 
ATOM      7  C   UNL     1      33.061  -8.213 -22.147  0.00  0.00    +0.015 C 
ATOM      8  C   UNL     1      34.746  -7.935 -23.876  0.00  0.00    +0.000 C 
ATOM      9  C   UNL     1      34.007  -7.426 -22.811  0.00  0.00    +0.001 C 
ENDROOT
BRANCH   2  10
ATOM     10  C   UNL     1      33.664 -12.372 -24.834  0.00  0.00    +0.093 C 
BRANCH  10  16
ATOM     11  S   UNL     1      33.850 -15.066 -25.364  0.00  0.00    -0.073 S 
ATOM     12  F   UNL     1      34.981 -15.313 -20.573  0.00  0.00    -0.199 F 
ATOM     13  F   UNL     1      34.257 -18.233 -25.174  0.00  0.00    -0.207 F 
ATOM     14  F   UNL     1      35.294 -18.021 -20.559  0.00  0.00    -0.202 F 
ATOM     15  N   UNL     1      34.257 -13.985 -23.059  0.00  0.00    -0.400 NA
ATOM     16  C   UNL     1      33.947 -13.765 -24.291  0.00  0.00    +0.139 C 
ATOM     17  C   UNL     1      34.449 -15.350 -22.902  0.00  0.00    +0.155 C 
ATOM     18  C   UNL     1      34.271 -16.112 -24.060  0.00  0.00    +0.158 C 
ATOM     19  C   UNL     1      34.800 -16.009 -21.704  0.00  0.00    +0.194 C 
ATOM     20  C   UNL     1      34.431 -17.507 -24.061  0.00  0.00    +0.137 C 
ATOM     21  C   UNL     1      34.960 -17.397 -21.698  0.00  0.00    +0.172 C 
ATOM     22  C   UNL     1      34.778 -18.135 -22.862  0.00  0.00    +0.058 C 
ENDBRANCH  10  16
ENDBRANCH   2  10
BRANCH   1  23
ATOM     23  C   UNL     1      31.110 -10.386 -21.040  0.00  0.00    +0.206 C 
BRANCH  23  25
ATOM     24  O   UNL     1      32.300  -9.728 -19.019  0.00  0.00    -0.248 OA
ATOM     25  C   UNL     1      31.767 -10.589 -19.703  0.00  0.00    +0.335 C 
BRANCH  25  26
ATOM     26  O   UNL     1      31.691 -11.896 -19.343  0.00  0.00    -0.479 OA
ATOM     27  H   UNL     1      30.860 -12.278 -19.138  0.00  0.00    +0.295 HD
ENDBRANCH  25  26
ENDBRANCH  23  25
ENDBRANCH   1  23
TORSDOF 5
ENDMDL
MODEL 4
REMARK VINA RESULT:     -10.1      8.094     11.982
REMARK  Name = 157839
REMARK  5 active torsions:
REMARK  status: ('A' for Active; 'I' for Inactive)
REMARK    1  A    between atoms: N_1  and  C_23
REMARK    2  A    between atoms: C_2  and  C_10
REMARK    3  A    between atoms: C_10  and  C_16
REMARK    4  A    between atoms: C_23  and  C_25
REMARK    5  A    between atoms: C_25  and  O_26
REMARK                            x       y       z     vdW  Elec       q    Type
REMARK                         _______ _______ _______ _____ _____    ______ ____
ROOT
ATOM      1  N   UNL     1      31.949 -10.730 -22.203  0.00  0.00    -0.276 N 
ATOM      2  C   UNL     1      33.087 -11.757 -23.808  0.00  0.00    +0.001 C 
ATOM      3  C   UNL     1      33.574 -10.423 -23.701  0.00  0.00    +0.011 C 
ATOM      4  C   UNL     1      32.844  -9.802 -22.686  0.00  0.00    +0.052 C 
ATOM      5  C   UNL     1      32.089 -11.915 -22.875  0.00  0.00    +0.062 C 
ATOM      6  C   UNL     1      34.569  -9.685 -24.370  0.00  0.00    +0.001 C 
ATOM      7  C   UNL     1      33.058  -8.472 -22.307  0.00  0.00    +0.015 C 
ATOM      8  C   UNL     1      34.796  -8.354 -24.001  0.00  0.00    +0.000 C 
ATOM      9  C   UNL     1      34.051  -7.759 -22.985  0.00  0.00    +0.001 C 
ENDROOT
BRANCH   2  10
ATOM     10  C   UNL     1      33.561 -12.791 -24.750  0.00  0.00    +0.093 C 
BRANCH  10  16
ATOM     11  S   UNL     1      34.183 -14.135 -22.431  0.00  0.00    -0.073 S 
ATOM     12  F   UNL     1      34.450 -18.011 -25.466  0.00  0.00    -0.199 F 
ATOM     13  F   UNL     1      34.949 -16.346 -20.251  0.00  0.00    -0.207 F 
ATOM     14  F   UNL     1      35.099 -19.785 -23.501  0.00  0.00    -0.202 F 
ATOM     15  N   UNL     1      34.025 -15.218 -24.766  0.00  0.00    -0.400 NA
ATOM     16  C   UNL     1      33.919 -14.119 -24.100  0.00  0.00    +0.139 C 
ATOM     17  C   UNL     1      34.358 -16.229 -23.877  0.00  0.00    +0.155 C 
ATOM     18  C   UNL     1      34.489 -15.828 -22.544  0.00  0.00    +0.158 C 
ATOM     19  C   UNL     1      34.568 -17.587 -24.200  0.00  0.00    +0.194 C 
ATOM     20  C   UNL     1      34.823 -16.736 -21.526  0.00  0.00    +0.137 C 
ATOM     21  C   UNL     1      34.900 -18.496 -23.192  0.00  0.00    +0.172 C 
ATOM     22  C   UNL     1      35.026 -18.075 -21.873  0.00  0.00    +0.058 C 
ENDBRANCH  10  16
ENDBRANCH   2  10
BRANCH   1  23
ATOM     23  C   UNL     1      30.994 -10.504 -21.139  0.00  0.00    +0.206 C 
BRANCH  23  25
ATOM     24  O   UNL     1      32.107  -9.704 -19.125  0.00  0.00    -0.248 OA
ATOM     25  C   UNL     1      31.619 -10.616 -19.776  0.00  0.00    +0.335 C 
BRANCH  25  26
ATOM     26  O   UNL     1      31.569 -11.903 -19.347  0.00  0.00    -0.479 OA
ATOM     27  H   UNL     1      31.318 -12.585 -19.940  0.00  0.00    +0.295 HD
ENDBRANCH  25  26
ENDBRANCH  23  25
ENDBRANCH   1  23
TORSDOF 5
ENDMDL
MODEL 5
REMARK VINA RESULT:     -10.1      9.768     12.800
REMARK  Name = 157839
REMARK  5 active torsions:
REMARK  status: ('A' for Active; 'I' for Inactive)
REMARK    1  A    between atoms: N_1  and  C_23
REMARK    2  A    between atoms: C_2  and  C_10
REMARK    3  A    between atoms: C_10  and  C_16
REMARK    4  A    between atoms: C_23  and  C_25
REMARK    5  A    between atoms: C_25  and  O_26
REMARK                            x       y       z     vdW  Elec       q    Type
REMARK                         _______ _______ _______ _____ _____    ______ ____
ROOT
ATOM      1  N   UNL     1      33.369 -13.572 -23.966  0.00  0.00    -0.276 N 
ATOM      2  C   UNL     1      32.269 -12.825 -22.189  0.00  0.00    +0.001 C 
ATOM      3  C   UNL     1      33.052 -13.944 -21.789  0.00  0.00    +0.011 C 
ATOM      4  C   UNL     1      33.732 -14.394 -22.922  0.00  0.00    +0.052 C 
ATOM      5  C   UNL     1      32.484 -12.621 -23.532  0.00  0.00    +0.062 C 
ATOM      6  C   UNL     1      33.247 -14.619 -20.568  0.00  0.00    +0.001 C 
ATOM      7  C   UNL     1      34.601 -15.490 -22.897  0.00  0.00    +0.015 C 
ATOM      8  C   UNL     1      34.115 -15.717 -20.527  0.00  0.00    +0.000 C 
ATOM      9  C   UNL     1      34.780 -16.144 -21.674  0.00  0.00    +0.001 C 
ENDROOT
BRANCH   2  10
ATOM     10  C   UNL     1      31.380 -12.021 -21.325  0.00  0.00    +0.093 C 
BRANCH  10  16
ATOM     11  S   UNL     1      32.080  -9.623 -20.170  0.00  0.00    -0.073 S 
ATOM     12  F   UNL     1      30.889  -7.832 -24.605  0.00  0.00    -0.199 F 
ATOM     13  F   UNL     1      32.692  -6.541 -19.575  0.00  0.00    -0.207 F 
ATOM     14  F   UNL     1      31.450  -5.244 -23.956  0.00  0.00    -0.202 F 
ATOM     15  N   UNL     1      31.256  -9.906 -22.597  0.00  0.00    -0.400 NA
ATOM     16  C   UNL     1      31.529 -10.517 -21.494  0.00  0.00    +0.139 C 
ATOM     17  C   UNL     1      31.500  -8.553 -22.410  0.00  0.00    +0.155 C 
ATOM     18  C   UNL     1      31.961  -8.202 -21.138  0.00  0.00    +0.158 C 
ATOM     19  C   UNL     1      31.327  -7.536 -23.374  0.00  0.00    +0.194 C 
ATOM     20  C   UNL     1      32.253  -6.872 -20.797  0.00  0.00    +0.137 C 
ATOM     21  C   UNL     1      31.615  -6.210 -23.040  0.00  0.00    +0.172 C 
ATOM     22  C   UNL     1      32.072  -5.884 -21.768  0.00  0.00    +0.058 C 
ENDBRANCH  10  16
ENDBRANCH   2  10
BRANCH   1  23
ATOM     23  C   UNL     1      33.844 -13.683 -25.328  0.00  0.00    +0.206 C 
BRANCH  23  25
ATOM     24  O   UNL     1      33.683 -15.937 -26.238  0.00  0.00    -0.248 OA
ATOM     25  C   UNL     1      33.204 -14.826 -26.067  0.00  0.00    +0.335 C 
BRANCH  25  26
ATOM     26  O   UNL     1      31.986 -14.451 -26.535  0.00  0.00    -0.479 OA
ATOM     27  H   UNL     1      31.890 -14.181 -27.427  0.00  0.00    +0.295 HD
ENDBRANCH  25  26
ENDBRANCH  23  25
ENDBRANCH   1  23
TORSDOF 5
ENDMDL
MODEL 6
REMARK VINA RESULT:     -10.0      9.640     13.149
REMARK  Name = 157839
REMARK  5 active torsions:
REMARK  status: ('A' for Active; 'I' for Inactive)
REMARK    1  A    between atoms: N_1  and  C_23
REMARK    2  A    between atoms: C_2  and  C_10
REMARK    3  A    between atoms: C_10  and  C_16
REMARK    4  A    between atoms: C_23  and  C_25
REMARK    5  A    between atoms: C_25  and  O_26
REMARK                            x       y       z     vdW  Elec       q    Type
REMARK                         _______ _______ _______ _____ _____    ______ ____
ROOT
ATOM      1  N   UNL     1      32.754  -8.729 -22.126  0.00  0.00    -0.276 N 
ATOM      2  C   UNL     1      32.140 -10.833 -22.478  0.00  0.00    +0.001 C 
ATOM      3  C   UNL     1      33.162 -10.506 -23.413  0.00  0.00    +0.011 C 
ATOM      4  C   UNL     1      33.529  -9.181 -23.170  0.00  0.00    +0.052 C 
ATOM      5  C   UNL     1      31.910  -9.721 -21.701  0.00  0.00    +0.062 C 
ATOM      6  C   UNL     1      33.812 -11.212 -24.444  0.00  0.00    +0.001 C 
ATOM      7  C   UNL     1      34.517  -8.523 -23.911  0.00  0.00    +0.015 C 
ATOM      8  C   UNL     1      34.803 -10.567 -25.193  0.00  0.00    +0.000 C 
ATOM      9  C   UNL     1      35.149  -9.244 -24.929  0.00  0.00    +0.001 C 
ENDROOT
BRANCH   2  10
ATOM     10  C   UNL     1      31.443 -12.130 -22.356  0.00  0.00    +0.093 C 
BRANCH  10  16
ATOM     11  S   UNL     1      33.053 -13.930 -21.037  0.00  0.00    -0.073 S 
ATOM     12  F   UNL     1      33.655 -15.786 -25.564  0.00  0.00    -0.199 F 
ATOM     13  F   UNL     1      35.022 -16.330 -20.267  0.00  0.00    -0.207 F 
ATOM     14  F   UNL     1      35.325 -17.786 -24.762  0.00  0.00    -0.202 F 
ATOM     15  N   UNL     1      32.604 -13.939 -23.576  0.00  0.00    -0.400 NA
ATOM     16  C   UNL     1      32.353 -13.345 -22.459  0.00  0.00    +0.139 C 
ATOM     17  C   UNL     1      33.459 -14.999 -23.316  0.00  0.00    +0.155 C 
ATOM     18  C   UNL     1      33.820 -15.157 -21.975  0.00  0.00    +0.158 C 
ATOM     19  C   UNL     1      33.978 -15.903 -24.268  0.00  0.00    +0.194 C 
ATOM     20  C   UNL     1      34.679 -16.185 -21.554  0.00  0.00    +0.137 C 
ATOM     21  C   UNL     1      34.834 -16.928 -23.856  0.00  0.00    +0.172 C 
ATOM     22  C   UNL     1      35.179 -17.066 -22.517  0.00  0.00    +0.058 C 
ENDBRANCH  10  16
ENDBRANCH   2  10
BRANCH   1  23
ATOM     23  C   UNL     1      32.809  -7.403 -21.549  0.00  0.00    +0.206 C 
BRANCH  23  25
ATOM     24  O   UNL     1      30.955  -6.688 -22.960  0.00  0.00    -0.248 OA
ATOM     25  C   UNL     1      31.635  -6.554 -21.953  0.00  0.00    +0.335 C 
BRANCH  25  26
ATOM     26  O   UNL     1      31.423  -5.585 -21.026  0.00  0.00    -0.479 OA
ATOM     27  H   UNL     1      30.565  -5.454 -20.673  0.00  0.00    +0.295 HD
ENDBRANCH  25  26
ENDBRANCH  23  25
ENDBRANCH   1  23
TORSDOF 5
ENDMDL
MODEL 7
REMARK VINA RESULT:      -9.9      6.341     10.091
REMARK  Name = 157839
REMARK  5 active torsions:
REMARK  status: ('A' for Active; 'I' for Inactive)
REMARK    1  A    between atoms: N_1  and  C_23
REMARK    2  A    between atoms: C_2  and  C_10
REMARK    3  A    between atoms: C_10  and  C_16
REMARK    4  A    between atoms: C_23  and  C_25
REMARK    5  A    between atoms: C_25  and  O_26
REMARK                            x       y       z     vdW  Elec       q    Type
REMARK                         _______ _______ _______ _____ _____    ______ ____
ROOT
ATOM      1  N   UNL     1      33.526 -15.245 -24.701  0.00  0.00    -0.276 N 
ATOM      2  C   UNL     1      34.971 -16.425 -23.499  0.00  0.00    +0.001 C 
ATOM      3  C   UNL     1      34.259 -15.564 -22.618  0.00  0.00    +0.011 C 
ATOM      4  C   UNL     1      33.359 -14.835 -23.397  0.00  0.00    +0.052 C 
ATOM      5  C   UNL     1      34.499 -16.206 -24.772  0.00  0.00    +0.062 C 
ATOM      6  C   UNL     1      34.294 -15.334 -21.228  0.00  0.00    +0.001 C 
ATOM      7  C   UNL     1      32.487 -13.884 -22.855  0.00  0.00    +0.015 C 
ATOM      8  C   UNL     1      33.427 -14.386 -20.672  0.00  0.00    +0.000 C 
ATOM      9  C   UNL     1      32.540 -13.673 -21.474  0.00  0.00    +0.001 C 
ENDROOT
BRANCH   2  10
ATOM     10  C   UNL     1      36.031 -17.384 -23.123  0.00  0.00    +0.093 C 
BRANCH  10  16
ATOM     11  S   UNL     1      33.984 -19.000 -22.246  0.00  0.00    -0.073 S 
ATOM     12  F   UNL     1      37.421 -20.622 -19.108  0.00  0.00    -0.199 F 
ATOM     13  F   UNL     1      32.186 -21.147 -20.701  0.00  0.00    -0.207 F 
ATOM     14  F   UNL     1      35.772 -22.413 -17.880  0.00  0.00    -0.202 F 
ATOM     15  N   UNL     1      36.373 -18.989 -21.276  0.00  0.00    -0.400 NA
ATOM     16  C   UNL     1      35.585 -18.467 -22.153  0.00  0.00    +0.139 C 
ATOM     17  C   UNL     1      35.654 -19.937 -20.562  0.00  0.00    +0.155 C 
ATOM     18  C   UNL     1      34.320 -20.088 -20.952  0.00  0.00    +0.158 C 
ATOM     19  C   UNL     1      36.148 -20.736 -19.509  0.00  0.00    +0.194 C 
ATOM     20  C   UNL     1      33.465 -21.008 -20.325  0.00  0.00    +0.137 C 
ATOM     21  C   UNL     1      35.301 -21.654 -18.881  0.00  0.00    +0.172 C 
ATOM     22  C   UNL     1      33.978 -21.787 -19.284  0.00  0.00    +0.058 C 
ENDBRANCH  10  16
ENDBRANCH   2  10
BRANCH   1  23
ATOM     23  C   UNL     1      32.789 -14.745 -25.841  0.00  0.00    +0.206 C 
BRANCH  23  25
ATOM     24  O   UNL     1      33.587 -12.444 -25.888  0.00  0.00    -0.248 OA
ATOM     25  C   UNL     1      33.424 -13.521 -26.441  0.00  0.00    +0.335 C 
BRANCH  25  26
ATOM     26  O   UNL     1      33.803 -13.776 -27.720  0.00  0.00    -0.479 OA
ATOM     27  H   UNL     1      33.157 -13.835 -28.397  0.00  0.00    +0.295 HD
ENDBRANCH  25  26
ENDBRANCH  23  25
ENDBRANCH   1  23
TORSDOF 5
ENDMDL
MODEL 8
REMARK VINA RESULT:      -9.8      9.788     12.716
REMARK  Name = 157839
REMARK  5 active torsions:
REMARK  status: ('A' for Active; 'I' for Inactive)
REMARK    1  A    between atoms: N_1  and  C_23
REMARK    2  A    between atoms: C_2  and  C_10
REMARK    3  A    between atoms: C_10  and  C_16
REMARK    4  A    between atoms: C_23  and  C_25
REMARK    5  A    between atoms: C_25  and  O_26
REMARK                            x       y       z     vdW  Elec       q    Type
REMARK                         _______ _______ _______ _____ _____    ______ ____
ROOT
ATOM      1  N   UNL     1      33.271 -14.792 -24.664  0.00  0.00    -0.276 N 
ATOM      2  C   UNL     1      32.632 -13.619 -22.893  0.00  0.00    +0.001 C 
ATOM      3  C   UNL     1      33.482 -14.670 -22.447  0.00  0.00    +0.011 C 
ATOM      4  C   UNL     1      33.868 -15.391 -23.578  0.00  0.00    +0.052 C 
ATOM      5  C   UNL     1      32.521 -13.720 -24.260  0.00  0.00    +0.062 C 
ATOM      6  C   UNL     1      33.960 -15.078 -21.186  0.00  0.00    +0.001 C 
ATOM      7  C   UNL     1      34.713 -16.505 -23.512  0.00  0.00    +0.015 C 
ATOM      8  C   UNL     1      34.806 -16.190 -21.105  0.00  0.00    +0.000 C 
ATOM      9  C   UNL     1      35.175 -16.891 -22.250  0.00  0.00    +0.001 C 
ENDROOT
BRANCH   2  10
ATOM     10  C   UNL     1      31.980 -12.598 -22.046  0.00  0.00    +0.093 C 
BRANCH  10  16
ATOM     11  S   UNL     1      31.003 -10.033 -22.245  0.00  0.00    -0.073 S 
ATOM     12  F   UNL     1      35.434  -9.146 -24.214  0.00  0.00    -0.199 F 
ATOM     13  F   UNL     1      30.614  -6.909 -22.807  0.00  0.00    -0.207 F 
ATOM     14  F   UNL     1      34.961  -6.494 -24.636  0.00  0.00    -0.202 F 
ATOM     15  N   UNL     1      33.350 -10.780 -23.010  0.00  0.00    -0.400 NA
ATOM     16  C   UNL     1      32.238 -11.163 -22.479  0.00  0.00    +0.139 C 
ATOM     17  C   UNL     1      33.252  -9.424 -23.282  0.00  0.00    +0.155 C 
ATOM     18  C   UNL     1      32.034  -8.834 -22.931  0.00  0.00    +0.158 C 
ATOM     19  C   UNL     1      34.253  -8.618 -23.866  0.00  0.00    +0.194 C 
ATOM     20  C   UNL     1      31.784  -7.468 -23.144  0.00  0.00    +0.137 C 
ATOM     21  C   UNL     1      34.010  -7.258 -24.081  0.00  0.00    +0.172 C 
ATOM     22  C   UNL     1      32.791  -6.693 -23.724  0.00  0.00    +0.058 C 
ENDBRANCH  10  16
ENDBRANCH   2  10
BRANCH   1  23
ATOM     23  C   UNL     1      33.406 -15.220 -26.040  0.00  0.00    +0.206 C 
BRANCH  23  25
ATOM     24  O   UNL     1      33.911 -13.460 -27.647  0.00  0.00    -0.248 OA
ATOM     25  C   UNL     1      33.097 -14.118 -27.015  0.00  0.00    +0.335 C 
BRANCH  25  26
ATOM     26  O   UNL     1      31.754 -13.941 -27.105  0.00  0.00    -0.479 OA
ATOM     27  H   UNL     1      31.409 -13.144 -27.458  0.00  0.00    +0.295 HD
ENDBRANCH  25  26
ENDBRANCH  23  25
ENDBRANCH   1  23
TORSDOF 5
ENDMDL
MODEL 9
REMARK VINA RESULT:      -9.8      2.328      3.340
REMARK  Name = 157839
REMARK  5 active torsions:
REMARK  status: ('A' for Active; 'I' for Inactive)
REMARK    1  A    between atoms: N_1  and  C_23
REMARK    2  A    between atoms: C_2  and  C_10
REMARK    3  A    between atoms: C_10  and  C_16
REMARK    4  A    between atoms: C_23  and  C_25
REMARK    5  A    between atoms: C_25  and  O_26
REMARK                            x       y       z     vdW  Elec       q    Type
REMARK                         _______ _______ _______ _____ _____    ______ ____
ROOT
ATOM      1  N   UNL     1      31.473 -22.895 -15.940  0.00  0.00    -0.276 N 
ATOM      2  C   UNL     1      33.116 -23.315 -17.372  0.00  0.00    +0.001 C 
ATOM      3  C   UNL     1      33.584 -23.606 -16.059  0.00  0.00    +0.011 C 
ATOM      4  C   UNL     1      32.534 -23.334 -15.181  0.00  0.00    +0.052 C 
ATOM      5  C   UNL     1      31.816 -22.880 -17.266  0.00  0.00    +0.062 C 
ATOM      6  C   UNL     1      34.804 -24.076 -15.533  0.00  0.00    +0.001 C 
ATOM      7  C   UNL     1      32.642 -23.508 -13.796  0.00  0.00    +0.015 C 
ATOM      8  C   UNL     1      34.926 -24.256 -14.151  0.00  0.00    +0.000 C 
ATOM      9  C   UNL     1      33.862 -23.976 -13.298  0.00  0.00    +0.001 C 
ENDROOT
BRANCH   2  10
ATOM     10  C   UNL     1      33.883 -23.452 -18.627  0.00  0.00    +0.093 C 
BRANCH  10  16
ATOM     11  S   UNL     1      35.875 -21.790 -19.545  0.00  0.00    -0.073 S 
ATOM     12  F   UNL     1      32.069 -18.908 -20.776  0.00  0.00    -0.199 F 
ATOM     13  F   UNL     1      37.546 -19.378 -20.816  0.00  0.00    -0.207 F 
ATOM     14  F   UNL     1      33.622 -16.929 -21.827  0.00  0.00    -0.202 F 
ATOM     15  N   UNL     1      33.351 -21.276 -19.672  0.00  0.00    -0.400 NA
ATOM     16  C   UNL     1      34.239 -22.132 -19.294  0.00  0.00    +0.139 C 
ATOM     17  C   UNL     1      34.010 -20.195 -20.237  0.00  0.00    +0.155 C 
ATOM     18  C   UNL     1      35.404 -20.293 -20.260  0.00  0.00    +0.158 C 
ATOM     19  C   UNL     1      33.403 -19.040 -20.776  0.00  0.00    +0.194 C 
ATOM     20  C   UNL     1      36.210 -19.278 -20.800  0.00  0.00    +0.137 C 
ATOM     21  C   UNL     1      34.200 -18.025 -21.315  0.00  0.00    +0.172 C 
ATOM     22  C   UNL     1      35.585 -18.145 -21.326  0.00  0.00    +0.058 C 
ENDBRANCH  10  16
ENDBRANCH   2  10
BRANCH   1  23
ATOM     23  C   UNL     1      30.177 -22.503 -15.429  0.00  0.00    +0.206 C 
BRANCH  23  25
ATOM     24  O   UNL     1      28.656 -24.141 -16.398  0.00  0.00    -0.248 OA
ATOM     25  C   UNL     1      29.048 -22.988 -16.297  0.00  0.00    +0.335 C 
BRANCH  25  26
ATOM     26  O   UNL     1      28.506 -21.945 -16.977  0.00  0.00    -0.479 OA
ATOM     27  H   UNL     1      28.797 -21.751 -17.846  0.00  0.00    +0.295 HD
ENDBRANCH  25  26
ENDBRANCH  23  25
ENDBRANCH   1  23
TORSDOF 5
ENDMDL
