MODEL 1
REMARK VINA RESULT:      -5.4      0.000      0.000
REMARK  Name = 2370
REMARK  4 active torsions:
REMARK  status: ('A' for Active; 'I' for Inactive)
REMARK    1  A    between atoms: C_1  and  O_3
REMARK    2  A    between atoms: C_1  and  C_9
REMARK    3  A    between atoms: O_3  and  C_6
REMARK    4  A    between atoms: C_9  and  N_10
REMARK                            x       y       z     vdW  Elec       q    Type
REMARK                         _______ _______ _______ _____ _____    ______ ____
ROOT
ATOM      1  C   UNL     1      37.640 -26.120 -14.471  0.00  0.00    +0.151 C 
ATOM      2  C   UNL     1      36.699 -26.897 -15.383  0.00  0.00    +0.045 C 
ENDROOT
BRANCH   1   3
ATOM      3  O   UNL     1      38.943 -26.696 -14.529  0.00  0.00    -0.441 OA
BRANCH   3   6
ATOM      4  O   UNL     1      41.113 -25.963 -14.311  0.00  0.00    -0.227 OA
ATOM      5  N   UNL     1      39.561 -24.766 -15.511  0.00  0.00    -0.295 N 
ATOM      6  C   UNL     1      39.973 -25.825 -14.742  0.00  0.00    +0.398 C 
ATOM      7  H   UNL     1      38.629 -24.718 -15.825  0.00  0.00    +0.148 HD
ATOM      8  H   UNL     1      40.197 -24.053 -15.750  0.00  0.00    +0.148 HD
ENDBRANCH   3   6
ENDBRANCH   1   3
BRANCH   1   9
ATOM      9  C   UNL     1      37.189 -26.061 -13.015  0.00  0.00    -0.029 C 
BRANCH   9  10
ATOM     10  N   UNL     1      36.946 -24.625 -12.575  0.00  0.00    +0.388 N 
ATOM     11  C   UNL     1      38.223 -24.055 -11.975  0.00  0.00    -0.096 C 
ATOM     12  C   UNL     1      36.532 -23.789 -13.777  0.00  0.00    -0.096 C 
ATOM     13  C   UNL     1      35.839 -24.596 -11.531  0.00  0.00    -0.096 C 
ENDBRANCH   9  10
ENDBRANCH   1   9
TORSDOF 4
ENDMDL
MODEL 2
REMARK VINA RESULT:      -5.0      2.541      4.610
REMARK  Name = 2370
REMARK  4 active torsions:
REMARK  status: ('A' for Active; 'I' for Inactive)
REMARK    1  A    between atoms: C_1  and  O_3
REMARK    2  A    between atoms: C_1  and  C_9
REMARK    3  A    between atoms: O_3  and  C_6
REMARK    4  A    between atoms: C_9  and  N_10
REMARK                            x       y       z     vdW  Elec       q    Type
REMARK                         _______ _______ _______ _____ _____    ______ ____
ROOT
ATOM      1  C   UNL     1      37.558 -24.170 -12.406  0.00  0.00    +0.151 C 
ATOM      2  C   UNL     1      37.821 -22.786 -11.827  0.00  0.00    +0.045 C 
ENDROOT
BRANCH   1   3
ATOM      3  O   UNL     1      36.978 -25.003 -11.405  0.00  0.00    -0.441 OA
BRANCH   3   6
ATOM      4  O   UNL     1      35.240 -24.560  -9.963  0.00  0.00    -0.227 OA
ATOM      5  N   UNL     1      34.901 -24.722 -12.231  0.00  0.00    -0.295 N 
ATOM      6  C   UNL     1      35.672 -24.746 -11.096  0.00  0.00    +0.398 C 
ATOM      7  H   UNL     1      35.314 -24.879 -13.111  0.00  0.00    +0.148 HD
ATOM      8  H   UNL     1      33.934 -24.547 -12.167  0.00  0.00    +0.148 HD
ENDBRANCH   3   6
ENDBRANCH   1   3
BRANCH   1   9
ATOM      9  C   UNL     1      38.800 -24.859 -12.963  0.00  0.00    -0.029 C 
BRANCH   9  10
ATOM     10  N   UNL     1      38.620 -25.208 -14.433  0.00  0.00    +0.388 N 
ATOM     11  C   UNL     1      37.820 -26.498 -14.554  0.00  0.00    -0.096 C 
ATOM     12  C   UNL     1      37.875 -24.082 -15.135  0.00  0.00    -0.096 C 
ATOM     13  C   UNL     1      39.984 -25.396 -15.081  0.00  0.00    -0.096 C 
ENDBRANCH   9  10
ENDBRANCH   1   9
TORSDOF 4
ENDMDL
MODEL 3
REMARK VINA RESULT:      -5.0      2.529      4.069
REMARK  Name = 2370
REMARK  4 active torsions:
REMARK  status: ('A' for Active; 'I' for Inactive)
REMARK    1  A    between atoms: C_1  and  O_3
REMARK    2  A    between atoms: C_1  and  C_9
REMARK    3  A    between atoms: O_3  and  C_6
REMARK    4  A    between atoms: C_9  and  N_10
REMARK                            x       y       z     vdW  Elec       q    Type
REMARK                         _______ _______ _______ _____ _____    ______ ____
ROOT
ATOM      1  C   UNL     1      35.925 -24.213 -13.272  0.00  0.00    +0.151 C 
ATOM      2  C   UNL     1      34.453 -24.158 -13.658  0.00  0.00    +0.045 C 
ENDROOT
BRANCH   1   3
ATOM      3  O   UNL     1      36.299 -22.987 -12.646  0.00  0.00    -0.441 OA
BRANCH   3   6
ATOM      4  O   UNL     1      38.356 -22.708 -11.652  0.00  0.00    -0.227 OA
ATOM      5  N   UNL     1      36.604 -23.678 -10.524  0.00  0.00    -0.295 N 
ATOM      6  C   UNL     1      37.191 -23.089 -11.616  0.00  0.00    +0.398 C 
ATOM      7  H   UNL     1      35.661 -23.960 -10.564  0.00  0.00    +0.148 HD
ATOM      8  H   UNL     1      37.125 -23.820  -9.701  0.00  0.00    +0.148 HD
ENDBRANCH   3   6
ENDBRANCH   1   3
BRANCH   1   9
ATOM      9  C   UNL     1      36.867 -24.478 -14.442  0.00  0.00    -0.029 C 
BRANCH   9  10
ATOM     10  N   UNL     1      37.503 -25.855 -14.332  0.00  0.00    +0.388 N 
ATOM     11  C   UNL     1      37.314 -26.390 -12.919  0.00  0.00    -0.096 C 
ATOM     12  C   UNL     1      36.844 -26.801 -15.325  0.00  0.00    -0.096 C 
ATOM     13  C   UNL     1      38.990 -25.753 -14.640  0.00  0.00    -0.096 C 
ENDBRANCH   9  10
ENDBRANCH   1   9
TORSDOF 4
ENDMDL
MODEL 4
REMARK VINA RESULT:      -4.9     12.397     13.273
REMARK  Name = 2370
REMARK  4 active torsions:
REMARK  status: ('A' for Active; 'I' for Inactive)
REMARK    1  A    between atoms: C_1  and  O_3
REMARK    2  A    between atoms: C_1  and  C_9
REMARK    3  A    between atoms: O_3  and  C_6
REMARK    4  A    between atoms: C_9  and  N_10
REMARK                            x       y       z     vdW  Elec       q    Type
REMARK                         _______ _______ _______ _____ _____    ______ ____
ROOT
ATOM      1  C   UNL     1      34.637 -17.914 -24.106  0.00  0.00    +0.151 C 
ATOM      2  C   UNL     1      34.216 -18.980 -25.110  0.00  0.00    +0.045 C 
ENDROOT
BRANCH   1   3
ATOM      3  O   UNL     1      35.020 -16.730 -24.801  0.00  0.00    -0.441 OA
BRANCH   3   6
ATOM      4  O   UNL     1      33.576 -15.792 -26.328  0.00  0.00    -0.227 OA
ATOM      5  N   UNL     1      33.511 -15.209 -24.105  0.00  0.00    -0.295 N 
ATOM      6  C   UNL     1      34.002 -15.904 -25.183  0.00  0.00    +0.398 C 
ATOM      7  H   UNL     1      33.900 -15.348 -23.211  0.00  0.00    +0.148 HD
ATOM      8  H   UNL     1      32.770 -14.572 -24.225  0.00  0.00    +0.148 HD
ENDBRANCH   3   6
ENDBRANCH   1   3
BRANCH   1   9
ATOM      9  C   UNL     1      35.777 -18.340 -23.187  0.00  0.00    -0.029 C 
BRANCH   9  10
ATOM     10  N   UNL     1      35.313 -18.423 -21.741  0.00  0.00    +0.388 N 
ATOM     11  C   UNL     1      36.420 -19.025 -20.886  0.00  0.00    -0.096 C 
ATOM     12  C   UNL     1      34.982 -17.027 -21.233  0.00  0.00    -0.096 C 
ATOM     13  C   UNL     1      34.073 -19.302 -21.655  0.00  0.00    -0.096 C 
ENDBRANCH   9  10
ENDBRANCH   1   9
TORSDOF 4
ENDMDL
MODEL 5
REMARK VINA RESULT:      -4.9      1.524      2.446
REMARK  Name = 2370
REMARK  4 active torsions:
REMARK  status: ('A' for Active; 'I' for Inactive)
REMARK    1  A    between atoms: C_1  and  O_3
REMARK    2  A    between atoms: C_1  and  C_9
REMARK    3  A    between atoms: O_3  and  C_6
REMARK    4  A    between atoms: C_9  and  N_10
REMARK                            x       y       z     vdW  Elec       q    Type
REMARK                         _______ _______ _______ _____ _____    ______ ____
ROOT
ATOM      1  C   UNL     1      38.090 -25.055 -13.440  0.00  0.00    +0.151 C 
ATOM      2  C   UNL     1      37.792 -25.691 -12.088  0.00  0.00    +0.045 C 
ENDROOT
BRANCH   1   3
ATOM      3  O   UNL     1      39.485 -24.780 -13.540  0.00  0.00    -0.441 OA
BRANCH   3   6
ATOM      4  O   UNL     1      40.963 -26.482 -14.002  0.00  0.00    -0.227 OA
ATOM      5  N   UNL     1      39.945 -25.293 -15.684  0.00  0.00    -0.295 N 
ATOM      6  C   UNL     1      40.199 -25.597 -14.370  0.00  0.00    +0.398 C 
ATOM      7  H   UNL     1      39.318 -24.567 -15.910  0.00  0.00    +0.148 HD
ATOM      8  H   UNL     1      40.389 -25.800 -16.402  0.00  0.00    +0.148 HD
ENDBRANCH   3   6
ENDBRANCH   1   3
BRANCH   1   9
ATOM      9  C   UNL     1      37.312 -23.772 -13.710  0.00  0.00    -0.029 C 
BRANCH   9  10
ATOM     10  N   UNL     1      36.084 -24.045 -14.566  0.00  0.00    +0.388 N 
ATOM     11  C   UNL     1      34.835 -23.972 -13.700  0.00  0.00    -0.096 C 
ATOM     12  C   UNL     1      35.995 -23.005 -15.673  0.00  0.00    -0.096 C 
ATOM     13  C   UNL     1      36.194 -25.433 -15.181  0.00  0.00    -0.096 C 
ENDBRANCH   9  10
ENDBRANCH   1   9
TORSDOF 4
ENDMDL
MODEL 6
REMARK VINA RESULT:      -4.8     13.935     14.999
REMARK  Name = 2370
REMARK  4 active torsions:
REMARK  status: ('A' for Active; 'I' for Inactive)
REMARK    1  A    between atoms: C_1  and  O_3
REMARK    2  A    between atoms: C_1  and  C_9
REMARK    3  A    between atoms: O_3  and  C_6
REMARK    4  A    between atoms: C_9  and  N_10
REMARK                            x       y       z     vdW  Elec       q    Type
REMARK                         _______ _______ _______ _____ _____    ______ ____
ROOT
ATOM      1  C   UNL     1      34.118 -15.684 -22.967  0.00  0.00    +0.151 C 
ATOM      2  C   UNL     1      33.860 -16.264 -21.582  0.00  0.00    +0.045 C 
ENDROOT
BRANCH   1   3
ATOM      3  O   UNL     1      35.195 -16.385 -23.584  0.00  0.00    -0.441 OA
BRANCH   3   6
ATOM      4  O   UNL     1      34.813 -16.779 -25.819  0.00  0.00    -0.227 OA
ATOM      5  N   UNL     1      34.600 -18.451 -24.256  0.00  0.00    -0.295 N 
ATOM      6  C   UNL     1      34.866 -17.165 -24.656  0.00  0.00    +0.398 C 
ATOM      7  H   UNL     1      34.662 -18.693 -23.303  0.00  0.00    +0.148 HD
ATOM      8  H   UNL     1      34.348 -19.132 -24.921  0.00  0.00    +0.148 HD
ENDBRANCH   3   6
ENDBRANCH   1   3
BRANCH   1   9
ATOM      9  C   UNL     1      34.432 -14.192 -22.969  0.00  0.00    -0.029 C 
BRANCH   9  10
ATOM     10  N   UNL     1      33.309 -13.396 -23.616  0.00  0.00    +0.388 N 
ATOM     11  C   UNL     1      32.183 -13.198 -22.611  0.00  0.00    -0.096 C 
ATOM     12  C   UNL     1      33.837 -12.039 -24.059  0.00  0.00    -0.096 C 
ATOM     13  C   UNL     1      32.781 -14.155 -24.825  0.00  0.00    -0.096 C 
ENDBRANCH   9  10
ENDBRANCH   1   9
TORSDOF 4
ENDMDL
MODEL 7
REMARK VINA RESULT:      -4.7      1.959      2.662
REMARK  Name = 2370
REMARK  4 active torsions:
REMARK  status: ('A' for Active; 'I' for Inactive)
REMARK    1  A    between atoms: C_1  and  O_3
REMARK    2  A    between atoms: C_1  and  C_9
REMARK    3  A    between atoms: O_3  and  C_6
REMARK    4  A    between atoms: C_9  and  N_10
REMARK                            x       y       z     vdW  Elec       q    Type
REMARK                         _______ _______ _______ _____ _____    ______ ____
ROOT
ATOM      1  C   UNL     1      37.247 -24.168 -14.627  0.00  0.00    +0.151 C 
ATOM      2  C   UNL     1      37.584 -22.932 -15.450  0.00  0.00    +0.045 C 
ENDROOT
BRANCH   1   3
ATOM      3  O   UNL     1      36.803 -25.211 -15.492  0.00  0.00    -0.441 OA
BRANCH   3   6
ATOM      4  O   UNL     1      38.339 -26.854 -15.008  0.00  0.00    -0.227 OA
ATOM      5  N   UNL     1      36.081 -27.280 -14.971  0.00  0.00    -0.295 N 
ATOM      6  C   UNL     1      37.181 -26.477 -15.146  0.00  0.00    +0.398 C 
ATOM      7  H   UNL     1      35.176 -26.911 -15.098  0.00  0.00    +0.148 HD
ATOM      8  H   UNL     1      36.195 -28.225 -14.718  0.00  0.00    +0.148 HD
ENDBRANCH   3   6
ENDBRANCH   1   3
BRANCH   1   9
ATOM      9  C   UNL     1      36.189 -23.933 -13.553  0.00  0.00    -0.029 C 
BRANCH   9  10
ATOM     10  N   UNL     1      36.789 -24.046 -12.159  0.00  0.00    +0.388 N 
ATOM     11  C   UNL     1      37.936 -25.046 -12.180  0.00  0.00    -0.096 C 
ATOM     12  C   UNL     1      37.309 -22.686 -11.718  0.00  0.00    -0.096 C 
ATOM     13  C   UNL     1      35.721 -24.521 -11.185  0.00  0.00    -0.096 C 
ENDBRANCH   9  10
ENDBRANCH   1   9
TORSDOF 4
ENDMDL
MODEL 8
REMARK VINA RESULT:      -4.7     12.238     13.176
REMARK  Name = 2370
REMARK  4 active torsions:
REMARK  status: ('A' for Active; 'I' for Inactive)
REMARK    1  A    between atoms: C_1  and  O_3
REMARK    2  A    between atoms: C_1  and  C_9
REMARK    3  A    between atoms: O_3  and  C_6
REMARK    4  A    between atoms: C_9  and  N_10
REMARK                            x       y       z     vdW  Elec       q    Type
REMARK                         _______ _______ _______ _____ _____    ______ ____
ROOT
ATOM      1  C   UNL     1      34.634 -17.869 -23.950  0.00  0.00    +0.151 C 
ATOM      2  C   UNL     1      34.295 -18.844 -25.071  0.00  0.00    +0.045 C 
ENDROOT
BRANCH   1   3
ATOM      3  O   UNL     1      34.931 -16.590 -24.505  0.00  0.00    -0.441 OA
BRANCH   3   6
ATOM      4  O   UNL     1      33.385 -15.196 -23.524  0.00  0.00    -0.227 OA
ATOM      5  N   UNL     1      33.523 -15.410 -25.808  0.00  0.00    -0.295 N 
ATOM      6  C   UNL     1      33.903 -15.691 -24.520  0.00  0.00    +0.398 C 
ATOM      7  H   UNL     1      33.983 -15.844 -26.564  0.00  0.00    +0.148 HD
ATOM      8  H   UNL     1      32.790 -14.775 -25.979  0.00  0.00    +0.148 HD
ENDBRANCH   3   6
ENDBRANCH   1   3
BRANCH   1   9
ATOM      9  C   UNL     1      35.800 -18.311 -23.072  0.00  0.00    -0.029 C 
BRANCH   9  10
ATOM     10  N   UNL     1      35.364 -18.473 -21.624  0.00  0.00    +0.388 N 
ATOM     11  C   UNL     1      34.121 -19.350 -21.562  0.00  0.00    -0.096 C 
ATOM     12  C   UNL     1      36.484 -19.124 -20.826  0.00  0.00    -0.096 C 
ATOM     13  C   UNL     1      35.048 -17.107 -21.032  0.00  0.00    -0.096 C 
ENDBRANCH   9  10
ENDBRANCH   1   9
TORSDOF 4
ENDMDL
MODEL 9
REMARK VINA RESULT:      -4.7      3.132      4.629
REMARK  Name = 2370
REMARK  4 active torsions:
REMARK  status: ('A' for Active; 'I' for Inactive)
REMARK    1  A    between atoms: C_1  and  O_3
REMARK    2  A    between atoms: C_1  and  C_9
REMARK    3  A    between atoms: O_3  and  C_6
REMARK    4  A    between atoms: C_9  and  N_10
REMARK                            x       y       z     vdW  Elec       q    Type
REMARK                         _______ _______ _______ _____ _____    ______ ____
ROOT
ATOM      1  C   UNL     1      36.711 -23.442 -15.310  0.00  0.00    +0.151 C 
ATOM      2  C   UNL     1      37.658 -22.586 -16.141  0.00  0.00    +0.045 C 
ENDROOT
BRANCH   1   3
ATOM      3  O   UNL     1      35.521 -22.707 -15.036  0.00  0.00    -0.441 OA
BRANCH   3   6
ATOM      4  O   UNL     1      34.273 -23.739 -16.672  0.00  0.00    -0.227 OA
ATOM      5  N   UNL     1      33.321 -23.053 -14.695  0.00  0.00    -0.295 N 
ATOM      6  C   UNL     1      34.368 -23.213 -15.568  0.00  0.00    +0.398 C 
ATOM      7  H   UNL     1      33.468 -22.620 -13.823  0.00  0.00    +0.148 HD
ATOM      8  H   UNL     1      32.422 -23.371 -14.941  0.00  0.00    +0.148 HD
ENDBRANCH   3   6
ENDBRANCH   1   3
BRANCH   1   9
ATOM      9  C   UNL     1      37.305 -23.930 -13.993  0.00  0.00    -0.029 C 
BRANCH   9  10
ATOM     10  N   UNL     1      37.585 -25.425 -14.040  0.00  0.00    +0.388 N 
ATOM     11  C   UNL     1      39.031 -25.658 -14.456  0.00  0.00    -0.096 C 
ATOM     12  C   UNL     1      37.350 -26.029 -12.663  0.00  0.00    -0.096 C 
ATOM     13  C   UNL     1      36.656 -26.084 -15.048  0.00  0.00    -0.096 C 
ENDBRANCH   9  10
ENDBRANCH   1   9
TORSDOF 4
ENDMDL
