MODEL 1
REMARK VINA RESULT:      -6.5      0.000      0.000
REMARK  Name = 91825600
REMARK  6 active torsions:
REMARK  status: ('A' for Active; 'I' for Inactive)
REMARK    1  A    between atoms: CA_1  and  N_2
REMARK    2  A    between atoms: CA_1  and  C_8
REMARK    3  A    between atoms: CA_1  and  C_9
REMARK    4  A    between atoms: C_9  and  C_10
REMARK    5  A    between atoms: C_10  and  C_13
REMARK    6  A    between atoms: N_12  and  O_15
REMARK                            x       y       z     vdW  Elec       q    Type
REMARK                         _______ _______ _______ _____ _____    ______ ____
ROOT
ATOM      1  CA  UNL     1      35.615 -24.523 -12.102  0.00  0.00    +0.041 C 
ENDROOT
BRANCH   1   2
ATOM      2  N   UNL     1      34.696 -23.541 -12.763  0.00  0.00    +0.389 N 
ATOM      3  H1  UNL     1      34.193 -23.014 -12.050  0.00  0.00    -0.088 HD
ATOM      4  H2  UNL     1      34.030 -24.042 -13.350  0.00  0.00    -0.088 HD
ATOM      5  H3  UNL     1      35.242 -22.900 -13.339  0.00  0.00    -0.088 HD
ENDBRANCH   1   2
BRANCH   1   8
ATOM      6  O   UNL     1      35.424 -24.478  -9.731  0.00  0.00    -0.248 OA
ATOM      7  OXT UNL     1      37.020 -23.196 -10.747  0.00  0.00    -0.248 OA
ATOM      8  C   UNL     1      36.064 -24.023 -10.721  0.00  0.00    +0.345 C 
ENDBRANCH   1   8
BRANCH   1   9
ATOM      9  C   UNL     1      36.760 -24.787 -13.085  0.00  0.00    -0.001 C 
BRANCH   9  10
ATOM     10  C   UNL     1      37.218 -26.247 -13.060  0.00  0.00    +0.086 C 
BRANCH  10  13
ATOM     11  O   UNL     1      38.708 -27.011 -14.809  0.00  0.00    -0.273 OA
ATOM     12  N   UNL     1      36.436 -26.936 -15.216  0.00  0.00    -0.197 N 
ATOM     13  C   UNL     1      37.561 -26.770 -14.444  0.00  0.00    +0.244 C 
ATOM     14  H   UNL     1      35.534 -26.728 -14.877  0.00  0.00    +0.182 HD
BRANCH  12  15
ATOM     15  O   UNL     1      36.648 -27.422 -16.513  0.00  0.00    -0.295 OA
ATOM     16  H   UNL     1      37.599 -27.422 -16.706  0.00  0.00    +0.241 HD
ENDBRANCH  12  15
ENDBRANCH  10  13
ENDBRANCH   9  10
ENDBRANCH   1   9
TORSDOF 6
ENDMDL
MODEL 2
REMARK VINA RESULT:      -6.2      2.073      4.761
REMARK  Name = 91825600
REMARK  6 active torsions:
REMARK  status: ('A' for Active; 'I' for Inactive)
REMARK    1  A    between atoms: CA_1  and  N_2
REMARK    2  A    between atoms: CA_1  and  C_8
REMARK    3  A    between atoms: CA_1  and  C_9
REMARK    4  A    between atoms: C_9  and  C_10
REMARK    5  A    between atoms: C_10  and  C_13
REMARK    6  A    between atoms: N_12  and  O_15
REMARK                            x       y       z     vdW  Elec       q    Type
REMARK                         _______ _______ _______ _____ _____    ______ ____
ROOT
ATOM      1  CA  UNL     1      38.698 -24.956 -14.097  0.00  0.00    +0.041 C 
ENDROOT
BRANCH   1   2
ATOM      2  N   UNL     1      37.749 -24.997 -15.256  0.00  0.00    +0.389 N 
ATOM      3  H1  UNL     1      37.942 -24.215 -15.881  0.00  0.00    -0.088 HD
ATOM      4  H2  UNL     1      36.791 -24.932 -14.914  0.00  0.00    -0.088 HD
ATOM      5  H3  UNL     1      37.870 -25.875 -15.762  0.00  0.00    -0.088 HD
ENDBRANCH   1   2
BRANCH   1   8
ATOM      6  O   UNL     1      41.031 -24.825 -14.541  0.00  0.00    -0.248 OA
ATOM      7  OXT UNL     1      39.990 -26.857 -14.634  0.00  0.00    -0.248 OA
ATOM      8  C   UNL     1      40.043 -25.606 -14.454  0.00  0.00    +0.345 C 
ENDBRANCH   1   8
BRANCH   1   9
ATOM      9  C   UNL     1      37.975 -25.603 -12.911  0.00  0.00    -0.001 C 
BRANCH   9  10
ATOM     10  C   UNL     1      37.370 -24.562 -11.965  0.00  0.00    +0.086 C 
BRANCH  10  13
ATOM     11  O   UNL     1      35.415 -25.063 -10.628  0.00  0.00    -0.273 OA
ATOM     12  N   UNL     1      35.161 -24.645 -12.885  0.00  0.00    -0.197 N 
ATOM     13  C   UNL     1      35.888 -24.789 -11.728  0.00  0.00    +0.244 C 
ATOM     14  H   UNL     1      35.587 -24.424 -13.745  0.00  0.00    +0.182 HD
BRANCH  12  15
ATOM     15  O   UNL     1      33.777 -24.830 -12.767  0.00  0.00    -0.295 OA
ATOM     16  H   UNL     1      33.338 -23.966 -12.717  0.00  0.00    +0.241 HD
ENDBRANCH  12  15
ENDBRANCH  10  13
ENDBRANCH   9  10
ENDBRANCH   1   9
TORSDOF 6
ENDMDL
MODEL 3
REMARK VINA RESULT:      -6.2      1.561      1.881
REMARK  Name = 91825600
REMARK  6 active torsions:
REMARK  status: ('A' for Active; 'I' for Inactive)
REMARK    1  A    between atoms: CA_1  and  N_2
REMARK    2  A    between atoms: CA_1  and  C_8
REMARK    3  A    between atoms: CA_1  and  C_9
REMARK    4  A    between atoms: C_9  and  C_10
REMARK    5  A    between atoms: C_10  and  C_13
REMARK    6  A    between atoms: N_12  and  O_15
REMARK                            x       y       z     vdW  Elec       q    Type
REMARK                         _______ _______ _______ _____ _____    ______ ____
ROOT
ATOM      1  CA  UNL     1      35.717 -24.502 -12.451  0.00  0.00    +0.041 C 
ENDROOT
BRANCH   1   2
ATOM      2  N   UNL     1      35.854 -23.214 -13.205  0.00  0.00    +0.389 N 
ATOM      3  H1  UNL     1      36.574 -22.640 -12.768  0.00  0.00    -0.088 HD
ATOM      4  H2  UNL     1      34.965 -22.716 -13.189  0.00  0.00    -0.088 HD
ATOM      5  H3  UNL     1      36.115 -23.413 -14.170  0.00  0.00    -0.088 HD
ENDBRANCH   1   2
BRANCH   1   8
ATOM      6  O   UNL     1      35.248 -24.990 -10.170  0.00  0.00    -0.248 OA
ATOM      7  OXT UNL     1      36.845 -23.434 -10.672  0.00  0.00    -0.248 OA
ATOM      8  C   UNL     1      35.961 -24.296 -10.948  0.00  0.00    +0.345 C 
ENDBRANCH   1   8
BRANCH   1   9
ATOM      9  C   UNL     1      36.665 -25.506 -13.115  0.00  0.00    -0.001 C 
BRANCH   9  10
ATOM     10  C   UNL     1      37.831 -24.817 -13.827  0.00  0.00    +0.086 C 
BRANCH  10  13
ATOM     11  O   UNL     1      38.481 -27.003 -14.641  0.00  0.00    -0.273 OA
ATOM     12  N   UNL     1      39.654 -25.141 -15.345  0.00  0.00    -0.197 N 
ATOM     13  C   UNL     1      38.672 -25.789 -14.634  0.00  0.00    +0.244 C 
ATOM     14  H   UNL     1      39.768 -24.164 -15.307  0.00  0.00    +0.182 HD
BRANCH  12  15
ATOM     15  O   UNL     1      40.482 -25.956 -16.129  0.00  0.00    -0.295 OA
ATOM     16  H   UNL     1      40.635 -26.797 -15.671  0.00  0.00    +0.241 HD
ENDBRANCH  12  15
ENDBRANCH  10  13
ENDBRANCH   9  10
ENDBRANCH   1   9
TORSDOF 6
ENDMDL
MODEL 4
REMARK VINA RESULT:      -6.2      2.025      5.346
REMARK  Name = 91825600
REMARK  6 active torsions:
REMARK  status: ('A' for Active; 'I' for Inactive)
REMARK    1  A    between atoms: CA_1  and  N_2
REMARK    2  A    between atoms: CA_1  and  C_8
REMARK    3  A    between atoms: CA_1  and  C_9
REMARK    4  A    between atoms: C_9  and  C_10
REMARK    5  A    between atoms: C_10  and  C_13
REMARK    6  A    between atoms: N_12  and  O_15
REMARK                            x       y       z     vdW  Elec       q    Type
REMARK                         _______ _______ _______ _____ _____    ______ ____
ROOT
ATOM      1  CA  UNL     1      38.824 -25.624 -14.239  0.00  0.00    +0.041 C 
ENDROOT
BRANCH   1   2
ATOM      2  N   UNL     1      38.190 -26.960 -14.478  0.00  0.00    +0.389 N 
ATOM      3  H1  UNL     1      37.175 -26.860 -14.471  0.00  0.00    -0.088 HD
ATOM      4  H2  UNL     1      38.474 -27.606 -13.742  0.00  0.00    -0.088 HD
ATOM      5  H3  UNL     1      38.491 -27.321 -15.383  0.00  0.00    -0.088 HD
ENDBRANCH   1   2
BRANCH   1   8
ATOM      6  O   UNL     1      40.956 -24.578 -14.382  0.00  0.00    -0.248 OA
ATOM      7  OXT UNL     1      40.791 -26.828 -14.746  0.00  0.00    -0.248 OA
ATOM      8  C   UNL     1      40.342 -25.677 -14.473  0.00  0.00    +0.345 C 
ENDBRANCH   1   8
BRANCH   1   9
ATOM      9  C   UNL     1      38.414 -25.185 -12.830  0.00  0.00    -0.001 C 
BRANCH   9  10
ATOM     10  C   UNL     1      37.447 -23.999 -12.853  0.00  0.00    +0.086 C 
BRANCH  10  13
ATOM     11  O   UNL     1      37.196 -22.726 -10.809  0.00  0.00    -0.273 OA
ATOM     12  N   UNL     1      35.942 -24.643 -11.105  0.00  0.00    -0.197 N 
ATOM     13  C   UNL     1      36.867 -23.699 -11.482  0.00  0.00    +0.244 C 
ATOM     14  H   UNL     1      35.712 -25.408 -11.681  0.00  0.00    +0.182 HD
BRANCH  12  15
ATOM     15  O   UNL     1      35.344 -24.450  -9.852  0.00  0.00    -0.295 OA
ATOM     16  H   UNL     1      34.393 -24.302  -9.966  0.00  0.00    +0.241 HD
ENDBRANCH  12  15
ENDBRANCH  10  13
ENDBRANCH   9  10
ENDBRANCH   1   9
TORSDOF 6
ENDMDL
MODEL 5
REMARK VINA RESULT:      -6.1      1.223      4.999
REMARK  Name = 91825600
REMARK  6 active torsions:
REMARK  status: ('A' for Active; 'I' for Inactive)
REMARK    1  A    between atoms: CA_1  and  N_2
REMARK    2  A    between atoms: CA_1  and  C_8
REMARK    3  A    between atoms: CA_1  and  C_9
REMARK    4  A    between atoms: C_9  and  C_10
REMARK    5  A    between atoms: C_10  and  C_13
REMARK    6  A    between atoms: N_12  and  O_15
REMARK                            x       y       z     vdW  Elec       q    Type
REMARK                         _______ _______ _______ _____ _____    ______ ____
ROOT
ATOM      1  CA  UNL     1      36.774 -25.403 -14.759  0.00  0.00    +0.041 C 
ENDROOT
BRANCH   1   2
ATOM      2  N   UNL     1      35.294 -25.400 -14.531  0.00  0.00    +0.389 N 
ATOM      3  H1  UNL     1      34.954 -24.439 -14.515  0.00  0.00    -0.088 HD
ATOM      4  H2  UNL     1      35.086 -25.849 -13.640  0.00  0.00    -0.088 HD
ATOM      5  H3  UNL     1      34.834 -25.911 -15.285  0.00  0.00    -0.088 HD
ENDBRANCH   1   2
BRANCH   1   8
ATOM      6  O   UNL     1      36.576 -27.259 -16.234  0.00  0.00    -0.248 OA
ATOM      7  OXT UNL     1      38.271 -27.228 -14.702  0.00  0.00    -0.248 OA
ATOM      8  C   UNL     1      37.254 -26.762 -15.291  0.00  0.00    +0.345 C 
ENDBRANCH   1   8
BRANCH   1   9
ATOM      9  C   UNL     1      37.425 -24.972 -13.441  0.00  0.00    -0.001 C 
BRANCH   9  10
ATOM     10  C   UNL     1      36.967 -23.581 -12.998  0.00  0.00    +0.086 C 
BRANCH  10  13
ATOM     11  O   UNL     1      37.232 -22.708 -10.755  0.00  0.00    -0.273 OA
ATOM     12  N   UNL     1      35.758 -24.448 -11.122  0.00  0.00    -0.197 N 
ATOM     13  C   UNL     1      36.687 -23.511 -11.507  0.00  0.00    +0.244 C 
ATOM     14  H   UNL     1      35.349 -25.073 -11.764  0.00  0.00    +0.182 HD
BRANCH  12  15
ATOM     15  O   UNL     1      35.428 -24.460  -9.760  0.00  0.00    -0.295 OA
ATOM     16  H   UNL     1      36.176 -24.123  -9.243  0.00  0.00    +0.241 HD
ENDBRANCH  12  15
ENDBRANCH  10  13
ENDBRANCH   9  10
ENDBRANCH   1   9
TORSDOF 6
ENDMDL
MODEL 6
REMARK VINA RESULT:      -6.0      1.703      4.715
REMARK  Name = 91825600
REMARK  6 active torsions:
REMARK  status: ('A' for Active; 'I' for Inactive)
REMARK    1  A    between atoms: CA_1  and  N_2
REMARK    2  A    between atoms: CA_1  and  C_8
REMARK    3  A    between atoms: CA_1  and  C_9
REMARK    4  A    between atoms: C_9  and  C_10
REMARK    5  A    between atoms: C_10  and  C_13
REMARK    6  A    between atoms: N_12  and  O_15
REMARK                            x       y       z     vdW  Elec       q    Type
REMARK                         _______ _______ _______ _____ _____    ______ ____
ROOT
ATOM      1  CA  UNL     1      37.756 -26.040 -14.372  0.00  0.00    +0.041 C 
ENDROOT
BRANCH   1   2
ATOM      2  N   UNL     1      38.306 -24.654 -14.513  0.00  0.00    +0.389 N 
ATOM      3  H1  UNL     1      37.918 -24.058 -13.781  0.00  0.00    -0.088 HD
ATOM      4  H2  UNL     1      38.052 -24.279 -15.427  0.00  0.00    -0.088 HD
ATOM      5  H3  UNL     1      39.322 -24.681 -14.427  0.00  0.00    -0.088 HD
ENDBRANCH   1   2
BRANCH   1   8
ATOM      6  O   UNL     1      35.649 -25.451 -15.308  0.00  0.00    -0.248 OA
ATOM      7  OXT UNL     1      36.734 -27.307 -16.082  0.00  0.00    -0.248 OA
ATOM      8  C   UNL     1      36.598 -26.283 -15.353  0.00  0.00    +0.345 C 
ENDBRANCH   1   8
BRANCH   1   9
ATOM      9  C   UNL     1      37.386 -26.221 -12.897  0.00  0.00    -0.001 C 
BRANCH   9  10
ATOM     10  C   UNL     1      37.230 -24.882 -12.171  0.00  0.00    +0.086 C 
BRANCH  10  13
ATOM     11  O   UNL     1      35.270 -25.073 -10.763  0.00  0.00    -0.273 OA
ATOM     12  N   UNL     1      35.167 -23.774 -12.671  0.00  0.00    -0.197 N 
ATOM     13  C   UNL     1      35.792 -24.606 -11.772  0.00  0.00    +0.244 C 
ATOM     14  H   UNL     1      35.629 -23.424 -13.467  0.00  0.00    +0.182 HD
BRANCH  12  15
ATOM     15  O   UNL     1      33.833 -23.454 -12.385  0.00  0.00    -0.295 OA
ATOM     16  H   UNL     1      33.701 -22.498 -12.480  0.00  0.00    +0.241 HD
ENDBRANCH  12  15
ENDBRANCH  10  13
ENDBRANCH   9  10
ENDBRANCH   1   9
TORSDOF 6
ENDMDL
MODEL 7
REMARK VINA RESULT:      -5.9      6.710      7.968
REMARK  Name = 91825600
REMARK  6 active torsions:
REMARK  status: ('A' for Active; 'I' for Inactive)
REMARK    1  A    between atoms: CA_1  and  N_2
REMARK    2  A    between atoms: CA_1  and  C_8
REMARK    3  A    between atoms: CA_1  and  C_9
REMARK    4  A    between atoms: C_9  and  C_10
REMARK    5  A    between atoms: C_10  and  C_13
REMARK    6  A    between atoms: N_12  and  O_15
REMARK                            x       y       z     vdW  Elec       q    Type
REMARK                         _______ _______ _______ _____ _____    ______ ____
ROOT
ATOM      1  CA  UNL     1      29.089 -23.517 -15.630  0.00  0.00    +0.041 C 
ENDROOT
BRANCH   1   2
ATOM      2  N   UNL     1      28.837 -24.897 -15.106  0.00  0.00    +0.389 N 
ATOM      3  H1  UNL     1      27.999 -25.279 -15.544  0.00  0.00    -0.088 HD
ATOM      4  H2  UNL     1      28.706 -24.859 -14.096  0.00  0.00    -0.088 HD
ATOM      5  H3  UNL     1      29.636 -25.493 -15.323  0.00  0.00    -0.088 HD
ENDBRANCH   1   2
BRANCH   1   8
ATOM      6  O   UNL     1      28.143 -22.036 -17.234  0.00  0.00    -0.248 OA
ATOM      7  OXT UNL     1      27.819 -24.286 -17.466  0.00  0.00    -0.248 OA
ATOM      8  C   UNL     1      28.275 -23.248 -16.906  0.00  0.00    +0.345 C 
ENDBRANCH   1   8
BRANCH   1   9
ATOM      9  C   UNL     1      30.605 -23.379 -15.804  0.00  0.00    -0.001 C 
BRANCH   9  10
ATOM     10  C   UNL     1      31.277 -22.789 -14.562  0.00  0.00    +0.086 C 
BRANCH  10  13
ATOM     11  O   UNL     1      31.216 -24.738 -13.126  0.00  0.00    -0.273 OA
ATOM     12  N   UNL     1      33.242 -23.714 -13.554  0.00  0.00    -0.197 N 
ATOM     13  C   UNL     1      31.880 -23.858 -13.668  0.00  0.00    +0.244 C 
ATOM     14  H   UNL     1      33.731 -22.991 -14.009  0.00  0.00    +0.182 HD
BRANCH  12  15
ATOM     15  O   UNL     1      33.894 -24.660 -12.751  0.00  0.00    -0.295 OA
ATOM     16  H   UNL     1      34.254 -25.366 -13.309  0.00  0.00    +0.241 HD
ENDBRANCH  12  15
ENDBRANCH  10  13
ENDBRANCH   9  10
ENDBRANCH   1   9
TORSDOF 6
ENDMDL
MODEL 8
REMARK VINA RESULT:      -5.9      2.570      2.897
REMARK  Name = 91825600
REMARK  6 active torsions:
REMARK  status: ('A' for Active; 'I' for Inactive)
REMARK    1  A    between atoms: CA_1  and  N_2
REMARK    2  A    between atoms: CA_1  and  C_8
REMARK    3  A    between atoms: CA_1  and  C_9
REMARK    4  A    between atoms: C_9  and  C_10
REMARK    5  A    between atoms: C_10  and  C_13
REMARK    6  A    between atoms: N_12  and  O_15
REMARK                            x       y       z     vdW  Elec       q    Type
REMARK                         _______ _______ _______ _____ _____    ______ ____
ROOT
ATOM      1  CA  UNL     1      36.624 -23.658 -13.532  0.00  0.00    +0.041 C 
ENDROOT
BRANCH   1   2
ATOM      2  N   UNL     1      35.248 -24.161 -13.224  0.00  0.00    +0.389 N 
ATOM      3  H1  UNL     1      34.946 -24.798 -13.962  0.00  0.00    -0.088 HD
ATOM      4  H2  UNL     1      34.602 -23.374 -13.169  0.00  0.00    -0.088 HD
ATOM      5  H3  UNL     1      35.259 -24.655 -12.332  0.00  0.00    -0.088 HD
ENDBRANCH   1   2
BRANCH   1   8
ATOM      6  O   UNL     1      37.677 -22.496 -15.322  0.00  0.00    -0.248 OA
ATOM      7  OXT UNL     1      35.963 -23.936 -15.781  0.00  0.00    -0.248 OA
ATOM      8  C   UNL     1      36.777 -23.331 -15.026  0.00  0.00    +0.345 C 
ENDBRANCH   1   8
BRANCH   1   9
ATOM      9  C   UNL     1      37.607 -24.709 -13.008  0.00  0.00    -0.001 C 
BRANCH   9  10
ATOM     10  C   UNL     1      37.067 -26.133 -13.161  0.00  0.00    +0.086 C 
BRANCH  10  13
ATOM     11  O   UNL     1      38.624 -27.098 -14.745  0.00  0.00    -0.273 OA
ATOM     12  N   UNL     1      36.394 -26.919 -15.320  0.00  0.00    -0.197 N 
ATOM     13  C   UNL     1      37.471 -26.766 -14.480  0.00  0.00    +0.244 C 
ATOM     14  H   UNL     1      35.486 -26.637 -15.063  0.00  0.00    +0.182 HD
BRANCH  12  15
ATOM     15  O   UNL     1      36.665 -27.502 -16.565  0.00  0.00    -0.295 OA
ATOM     16  H   UNL     1      36.250 -28.378 -16.610  0.00  0.00    +0.241 HD
ENDBRANCH  12  15
ENDBRANCH  10  13
ENDBRANCH   9  10
ENDBRANCH   1   9
TORSDOF 6
ENDMDL
MODEL 9
REMARK VINA RESULT:      -5.8      1.488      4.658
REMARK  Name = 91825600
REMARK  6 active torsions:
REMARK  status: ('A' for Active; 'I' for Inactive)
REMARK    1  A    between atoms: CA_1  and  N_2
REMARK    2  A    between atoms: CA_1  and  C_8
REMARK    3  A    between atoms: CA_1  and  C_9
REMARK    4  A    between atoms: C_9  and  C_10
REMARK    5  A    between atoms: C_10  and  C_13
REMARK    6  A    between atoms: N_12  and  O_15
REMARK                            x       y       z     vdW  Elec       q    Type
REMARK                         _______ _______ _______ _____ _____    ______ ____
ROOT
ATOM      1  CA  UNL     1      36.907 -25.324 -15.012  0.00  0.00    +0.041 C 
ENDROOT
BRANCH   1   2
ATOM      2  N   UNL     1      36.032 -26.540 -14.965  0.00  0.00    +0.389 N 
ATOM      3  H1  UNL     1      36.148 -27.007 -14.066  0.00  0.00    -0.088 HD
ATOM      4  H2  UNL     1      36.295 -27.177 -15.716  0.00  0.00    -0.088 HD
ATOM      5  H3  UNL     1      35.058 -26.261 -15.081  0.00  0.00    -0.088 HD
ENDBRANCH   1   2
BRANCH   1   8
ATOM      6  O   UNL     1      38.788 -24.644 -13.725  0.00  0.00    -0.248 OA
ATOM      7  OXT UNL     1      38.737 -26.756 -14.596  0.00  0.00    -0.248 OA
ATOM      8  C   UNL     1      38.278 -25.599 -14.375  0.00  0.00    +0.345 C 
ENDBRANCH   1   8
BRANCH   1   9
ATOM      9  C   UNL     1      36.118 -24.186 -14.357  0.00  0.00    -0.001 C 
BRANCH   9  10
ATOM     10  C   UNL     1      35.206 -24.687 -13.235  0.00  0.00    +0.086 C 
BRANCH  10  13
ATOM     11  O   UNL     1      35.416 -24.962 -10.838  0.00  0.00    -0.273 OA
ATOM     12  N   UNL     1      36.662 -23.333 -11.901  0.00  0.00    -0.197 N 
ATOM     13  C   UNL     1      35.753 -24.363 -11.856  0.00  0.00    +0.244 C 
ATOM     14  H   UNL     1      36.900 -22.883 -12.744  0.00  0.00    +0.182 HD
BRANCH  12  15
ATOM     15  O   UNL     1      37.229 -22.962 -10.674  0.00  0.00    -0.295 OA
ATOM     16  H   UNL     1      37.680 -22.109 -10.770  0.00  0.00    +0.241 HD
ENDBRANCH  12  15
ENDBRANCH  10  13
ENDBRANCH   9  10
ENDBRANCH   1   9
TORSDOF 6
ENDMDL
