MODEL 1
REMARK VINA RESULT:      -5.7      0.000      0.000
REMARK  Name = 439162
REMARK  8 active torsions:
REMARK  status: ('A' for Active; 'I' for Inactive)
REMARK    1  A    between atoms: O_1  and  P_2
REMARK    2  A    between atoms: O_1  and  C_8
REMARK    3  A    between atoms: P_2  and  O_4
REMARK    4  A    between atoms: P_2  and  O_6
REMARK    5  A    between atoms: C_8  and  C_9
REMARK    6  A    between atoms: C_9  and  O_10
REMARK    7  A    between atoms: C_9  and  C_12
REMARK    8  A    between atoms: C_12  and  O_13
REMARK                            x       y       z     vdW  Elec       q    Type
REMARK                         _______ _______ _______ _____ _____    ______ ____
ROOT
ATOM      1  O   UNL     1      38.803 -26.292 -14.309  0.00  0.00    -0.271 OA
ENDROOT
BRANCH   1   2
ATOM      2  P   UNL     1      39.891 -25.228 -14.852  0.00  0.00    +0.473 P 
ATOM      3  O   UNL     1      40.849 -24.714 -13.818  0.00  0.00    -0.227 OA
BRANCH   2   4
ATOM      4  O   UNL     1      38.994 -24.099 -15.585  0.00  0.00    -0.303 OA
ATOM      5  H   UNL     1      38.853 -24.350 -16.512  0.00  0.00    +0.222 HD
ENDBRANCH   2   4
BRANCH   2   6
ATOM      6  O   UNL     1      40.576 -26.017 -16.086  0.00  0.00    -0.303 OA
ATOM      7  H   UNL     1      40.523 -25.473 -16.888  0.00  0.00    +0.222 HD
ENDBRANCH   2   6
ENDBRANCH   1   2
BRANCH   1   8
ATOM      8  C   UNL     1      37.573 -25.794 -13.792  0.00  0.00    +0.185 C 
BRANCH   8   9
ATOM      9  C   UNL     1      37.734 -25.454 -12.315  0.00  0.00    +0.170 C 
BRANCH   9  10
ATOM     10  O   UNL     1      36.710 -26.123 -11.575  0.00  0.00    -0.379 OA
ATOM     11  H   UNL     1      37.088 -26.490 -10.761  0.00  0.00    +0.211 HD
ENDBRANCH   9  10
BRANCH   9  12
ATOM     12  C   UNL     1      37.588 -23.957 -12.069  0.00  0.00    +0.169 C 
BRANCH  12  13
ATOM     13  O   UNL     1      38.861 -23.418 -11.732  0.00  0.00    -0.379 OA
ATOM     14  H   UNL     1      39.276 -23.968 -11.049  0.00  0.00    +0.211 HD
ENDBRANCH  12  13
ENDBRANCH   9  12
ENDBRANCH   8   9
ENDBRANCH   1   8
TORSDOF 8
ENDMDL
MODEL 2
REMARK VINA RESULT:      -5.6      2.589      4.714
REMARK  Name = 439162
REMARK  8 active torsions:
REMARK  status: ('A' for Active; 'I' for Inactive)
REMARK    1  A    between atoms: O_1  and  P_2
REMARK    2  A    between atoms: O_1  and  C_8
REMARK    3  A    between atoms: P_2  and  O_4
REMARK    4  A    between atoms: P_2  and  O_6
REMARK    5  A    between atoms: C_8  and  C_9
REMARK    6  A    between atoms: C_9  and  O_10
REMARK    7  A    between atoms: C_9  and  C_12
REMARK    8  A    between atoms: C_12  and  O_13
REMARK                            x       y       z     vdW  Elec       q    Type
REMARK                         _______ _______ _______ _____ _____    ______ ____
ROOT
ATOM      1  O   UNL     1      36.411 -25.610 -11.778  0.00  0.00    -0.271 OA
ENDROOT
BRANCH   1   2
ATOM      2  P   UNL     1      36.072 -24.168 -11.133  0.00  0.00    +0.473 P 
ATOM      3  O   UNL     1      37.238 -23.229 -11.028  0.00  0.00    -0.227 OA
BRANCH   2   4
ATOM      4  O   UNL     1      35.349 -24.532  -9.733  0.00  0.00    -0.303 OA
ATOM      5  H   UNL     1      34.386 -24.472  -9.842  0.00  0.00    +0.222 HD
ENDBRANCH   2   4
BRANCH   2   6
ATOM      6  O   UNL     1      34.853 -23.643 -12.056  0.00  0.00    -0.303 OA
ATOM      7  H   UNL     1      34.977 -22.699 -12.250  0.00  0.00    +0.222 HD
ENDBRANCH   2   6
ENDBRANCH   1   2
BRANCH   1   8
ATOM      8  C   UNL     1      37.563 -25.724 -12.606  0.00  0.00    +0.185 C 
BRANCH   8   9
ATOM      9  C   UNL     1      37.215 -26.496 -13.874  0.00  0.00    +0.170 C 
BRANCH   9  10
ATOM     10  O   UNL     1      38.426 -26.954 -14.480  0.00  0.00    -0.379 OA
ATOM     11  H   UNL     1      38.787 -26.256 -15.048  0.00  0.00    +0.211 HD
ENDBRANCH   9  10
BRANCH   9  12
ATOM     12  C   UNL     1      36.491 -25.613 -14.882  0.00  0.00    +0.169 C 
BRANCH  12  13
ATOM     13  O   UNL     1      35.135 -25.462 -14.474  0.00  0.00    -0.379 OA
ATOM     14  H   UNL     1      34.815 -26.297 -14.097  0.00  0.00    +0.211 HD
ENDBRANCH  12  13
ENDBRANCH   9  12
ENDBRANCH   8   9
ENDBRANCH   1   8
TORSDOF 8
ENDMDL
MODEL 3
REMARK VINA RESULT:      -5.6      1.197      2.113
REMARK  Name = 439162
REMARK  8 active torsions:
REMARK  status: ('A' for Active; 'I' for Inactive)
REMARK    1  A    between atoms: O_1  and  P_2
REMARK    2  A    between atoms: O_1  and  C_8
REMARK    3  A    between atoms: P_2  and  O_4
REMARK    4  A    between atoms: P_2  and  O_6
REMARK    5  A    between atoms: C_8  and  C_9
REMARK    6  A    between atoms: C_9  and  O_10
REMARK    7  A    between atoms: C_9  and  C_12
REMARK    8  A    between atoms: C_12  and  O_13
REMARK                            x       y       z     vdW  Elec       q    Type
REMARK                         _______ _______ _______ _____ _____    ______ ____
ROOT
ATOM      1  O   UNL     1      38.931 -26.374 -14.107  0.00  0.00    -0.271 OA
ENDROOT
BRANCH   1   2
ATOM      2  P   UNL     1      40.397 -25.836 -14.518  0.00  0.00    +0.473 P 
ATOM      3  O   UNL     1      40.765 -24.496 -13.951  0.00  0.00    -0.227 OA
BRANCH   2   4
ATOM      4  O   UNL     1      40.404 -25.928 -16.132  0.00  0.00    -0.303 OA
ATOM      5  H   UNL     1      41.096 -25.347 -16.486  0.00  0.00    +0.222 HD
ENDBRANCH   2   4
BRANCH   2   6
ATOM      6  O   UNL     1      41.362 -27.054 -14.072  0.00  0.00    -0.303 OA
ATOM      7  H   UNL     1      41.495 -27.026 -13.111  0.00  0.00    +0.222 HD
ENDBRANCH   2   6
ENDBRANCH   1   2
BRANCH   1   8
ATOM      8  C   UNL     1      37.794 -25.756 -14.700  0.00  0.00    +0.185 C 
BRANCH   8   9
ATOM      9  C   UNL     1      37.185 -24.752 -13.728  0.00  0.00    +0.170 C 
BRANCH   9  10
ATOM     10  O   UNL     1      37.817 -23.485 -13.920  0.00  0.00    -0.379 OA
ATOM     11  H   UNL     1      38.768 -23.616 -14.057  0.00  0.00    +0.211 HD
ENDBRANCH   9  10
BRANCH   9  12
ATOM     12  C   UNL     1      37.408 -25.173 -12.281  0.00  0.00    +0.169 C 
BRANCH  12  13
ATOM     13  O   UNL     1      36.828 -26.457 -12.078  0.00  0.00    -0.379 OA
ATOM     14  H   UNL     1      36.692 -26.891 -12.936  0.00  0.00    +0.211 HD
ENDBRANCH  12  13
ENDBRANCH   9  12
ENDBRANCH   8   9
ENDBRANCH   1   8
TORSDOF 8
ENDMDL
MODEL 4
REMARK VINA RESULT:      -5.4      1.298      2.300
REMARK  Name = 439162
REMARK  8 active torsions:
REMARK  status: ('A' for Active; 'I' for Inactive)
REMARK    1  A    between atoms: O_1  and  P_2
REMARK    2  A    between atoms: O_1  and  C_8
REMARK    3  A    between atoms: P_2  and  O_4
REMARK    4  A    between atoms: P_2  and  O_6
REMARK    5  A    between atoms: C_8  and  C_9
REMARK    6  A    between atoms: C_9  and  O_10
REMARK    7  A    between atoms: C_9  and  C_12
REMARK    8  A    between atoms: C_12  and  O_13
REMARK                            x       y       z     vdW  Elec       q    Type
REMARK                         _______ _______ _______ _____ _____    ______ ____
ROOT
ATOM      1  O   UNL     1      39.098 -24.704 -13.154  0.00  0.00    -0.271 OA
ENDROOT
BRANCH   1   2
ATOM      2  P   UNL     1      39.489 -25.432 -14.542  0.00  0.00    +0.473 P 
ATOM      3  O   UNL     1      38.775 -26.726 -14.805  0.00  0.00    -0.227 OA
BRANCH   2   4
ATOM      4  O   UNL     1      41.102 -25.533 -14.484  0.00  0.00    -0.303 OA
ATOM      5  H   UNL     1      41.436 -25.854 -15.336  0.00  0.00    +0.222 HD
ENDBRANCH   2   4
BRANCH   2   6
ATOM      6  O   UNL     1      39.228 -24.273 -15.638  0.00  0.00    -0.303 OA
ATOM      7  H   UNL     1      40.049 -23.779 -15.789  0.00  0.00    +0.222 HD
ENDBRANCH   2   6
ENDBRANCH   1   2
BRANCH   1   8
ATOM      8  C   UNL     1      37.765 -24.231 -12.993  0.00  0.00    +0.185 C 
BRANCH   8   9
ATOM      9  C   UNL     1      37.025 -25.102 -11.985  0.00  0.00    +0.170 C 
BRANCH   9  10
ATOM     10  O   UNL     1      36.645 -26.323 -12.624  0.00  0.00    -0.379 OA
ATOM     11  H   UNL     1      37.085 -26.387 -13.486  0.00  0.00    +0.211 HD
ENDBRANCH   9  10
BRANCH   9  12
ATOM     12  C   UNL     1      35.757 -24.421 -11.484  0.00  0.00    +0.169 C 
BRANCH  12  13
ATOM     13  O   UNL     1      35.277 -25.120 -10.341  0.00  0.00    -0.379 OA
ATOM     14  H   UNL     1      34.480 -24.681 -10.004  0.00  0.00    +0.211 HD
ENDBRANCH  12  13
ENDBRANCH   9  12
ENDBRANCH   8   9
ENDBRANCH   1   8
TORSDOF 8
ENDMDL
MODEL 5
REMARK VINA RESULT:      -5.4      2.005      3.187
REMARK  Name = 439162
REMARK  8 active torsions:
REMARK  status: ('A' for Active; 'I' for Inactive)
REMARK    1  A    between atoms: O_1  and  P_2
REMARK    2  A    between atoms: O_1  and  C_8
REMARK    3  A    between atoms: P_2  and  O_4
REMARK    4  A    between atoms: P_2  and  O_6
REMARK    5  A    between atoms: C_8  and  C_9
REMARK    6  A    between atoms: C_9  and  O_10
REMARK    7  A    between atoms: C_9  and  C_12
REMARK    8  A    between atoms: C_12  and  O_13
REMARK                            x       y       z     vdW  Elec       q    Type
REMARK                         _______ _______ _______ _____ _____    ______ ____
ROOT
ATOM      1  O   UNL     1      37.107 -24.721 -14.092  0.00  0.00    -0.271 OA
ENDROOT
BRANCH   1   2
ATOM      2  P   UNL     1      37.439 -26.256 -14.471  0.00  0.00    +0.473 P 
ATOM      3  O   UNL     1      38.896 -26.566 -14.651  0.00  0.00    -0.227 OA
BRANCH   2   4
ATOM      4  O   UNL     1      36.506 -26.546 -15.759  0.00  0.00    -0.303 OA
ATOM      5  H   UNL     1      35.574 -26.557 -15.487  0.00  0.00    +0.222 HD
ENDBRANCH   2   4
BRANCH   2   6
ATOM      6  O   UNL     1      36.707 -27.081 -13.288  0.00  0.00    -0.303 OA
ATOM      7  H   UNL     1      35.745 -27.027 -13.403  0.00  0.00    +0.222 HD
ENDBRANCH   2   6
ENDBRANCH   1   2
BRANCH   1   8
ATOM      8  C   UNL     1      37.721 -24.164 -12.935  0.00  0.00    +0.185 C 
BRANCH   8   9
ATOM      9  C   UNL     1      36.694 -23.371 -12.135  0.00  0.00    +0.170 C 
BRANCH   9  10
ATOM     10  O   UNL     1      37.382 -22.421 -11.318  0.00  0.00    -0.379 OA
ATOM     11  H   UNL     1      36.873 -22.263 -10.508  0.00  0.00    +0.211 HD
ENDBRANCH   9  10
BRANCH   9  12
ATOM     12  C   UNL     1      35.882 -24.277 -11.218  0.00  0.00    +0.169 C 
BRANCH  12  13
ATOM     13  O   UNL     1      34.912 -24.971 -11.995  0.00  0.00    -0.379 OA
ATOM     14  H   UNL     1      35.172 -25.902 -12.082  0.00  0.00    +0.211 HD
ENDBRANCH  12  13
ENDBRANCH   9  12
ENDBRANCH   8   9
ENDBRANCH   1   8
TORSDOF 8
ENDMDL
MODEL 6
REMARK VINA RESULT:      -5.3      2.612      4.678
REMARK  Name = 439162
REMARK  8 active torsions:
REMARK  status: ('A' for Active; 'I' for Inactive)
REMARK    1  A    between atoms: O_1  and  P_2
REMARK    2  A    between atoms: O_1  and  C_8
REMARK    3  A    between atoms: P_2  and  O_4
REMARK    4  A    between atoms: P_2  and  O_6
REMARK    5  A    between atoms: C_8  and  C_9
REMARK    6  A    between atoms: C_9  and  O_10
REMARK    7  A    between atoms: C_9  and  C_12
REMARK    8  A    between atoms: C_12  and  O_13
REMARK                            x       y       z     vdW  Elec       q    Type
REMARK                         _______ _______ _______ _____ _____    ______ ____
ROOT
ATOM      1  O   UNL     1      36.583 -25.474 -11.880  0.00  0.00    -0.271 OA
ENDROOT
BRANCH   1   2
ATOM      2  P   UNL     1      35.943 -24.238 -11.059  0.00  0.00    +0.473 P 
ATOM      3  O   UNL     1      35.323 -24.602  -9.742  0.00  0.00    -0.227 OA
BRANCH   2   4
ATOM      4  O   UNL     1      34.944 -23.543 -12.124  0.00  0.00    -0.303 OA
ATOM      5  H   UNL     1      34.574 -22.733 -11.739  0.00  0.00    +0.222 HD
ENDBRANCH   2   4
BRANCH   2   6
ATOM      6  O   UNL     1      37.175 -23.194 -10.969  0.00  0.00    -0.303 OA
ATOM      7  H   UNL     1      36.861 -22.354 -10.598  0.00  0.00    +0.222 HD
ENDBRANCH   2   6
ENDBRANCH   1   2
BRANCH   1   8
ATOM      8  C   UNL     1      37.921 -25.350 -12.350  0.00  0.00    +0.185 C 
BRANCH   8   9
ATOM      9  C   UNL     1      37.918 -24.991 -13.831  0.00  0.00    +0.170 C 
BRANCH   9  10
ATOM     10  O   UNL     1      37.663 -23.590 -13.964  0.00  0.00    -0.379 OA
ATOM     11  H   UNL     1      37.304 -23.248 -13.131  0.00  0.00    +0.211 HD
ENDBRANCH   9  10
BRANCH   9  12
ATOM     12  C   UNL     1      36.825 -25.740 -14.583  0.00  0.00    +0.169 C 
BRANCH  12  13
ATOM     13  O   UNL     1      37.407 -26.414 -15.694  0.00  0.00    -0.379 OA
ATOM     14  H   UNL     1      37.422 -25.820 -16.462  0.00  0.00    +0.211 HD
ENDBRANCH  12  13
ENDBRANCH   9  12
ENDBRANCH   8   9
ENDBRANCH   1   8
TORSDOF 8
ENDMDL
MODEL 7
REMARK VINA RESULT:      -5.2      2.435      4.608
REMARK  Name = 439162
REMARK  8 active torsions:
REMARK  status: ('A' for Active; 'I' for Inactive)
REMARK    1  A    between atoms: O_1  and  P_2
REMARK    2  A    between atoms: O_1  and  C_8
REMARK    3  A    between atoms: P_2  and  O_4
REMARK    4  A    between atoms: P_2  and  O_6
REMARK    5  A    between atoms: C_8  and  C_9
REMARK    6  A    between atoms: C_9  and  O_10
REMARK    7  A    between atoms: C_9  and  C_12
REMARK    8  A    between atoms: C_12  and  O_13
REMARK                            x       y       z     vdW  Elec       q    Type
REMARK                         _______ _______ _______ _____ _____    ______ ____
ROOT
ATOM      1  O   UNL     1      36.737 -25.786 -11.800  0.00  0.00    -0.271 OA
ENDROOT
BRANCH   1   2
ATOM      2  P   UNL     1      35.765 -24.545 -11.447  0.00  0.00    +0.473 P 
ATOM      3  O   UNL     1      36.348 -23.187 -11.707  0.00  0.00    -0.227 OA
BRANCH   2   4
ATOM      4  O   UNL     1      35.323 -24.825  -9.917  0.00  0.00    -0.303 OA
ATOM      5  H   UNL     1      34.655 -25.529  -9.898  0.00  0.00    +0.222 HD
ENDBRANCH   2   4
BRANCH   2   6
ATOM      6  O   UNL     1      34.429 -24.888 -12.290  0.00  0.00    -0.303 OA
ATOM      7  H   UNL     1      33.857 -25.472 -11.766  0.00  0.00    +0.222 HD
ENDBRANCH   2   6
ENDBRANCH   1   2
BRANCH   1   8
ATOM      8  C   UNL     1      37.205 -25.916 -13.138  0.00  0.00    +0.185 C 
BRANCH   8   9
ATOM      9  C   UNL     1      38.700 -25.620 -13.194  0.00  0.00    +0.170 C 
BRANCH   9  10
ATOM     10  O   UNL     1      38.917 -24.269 -12.780  0.00  0.00    -0.379 OA
ATOM     11  H   UNL     1      38.206 -23.708 -13.126  0.00  0.00    +0.211 HD
ENDBRANCH   9  10
BRANCH   9  12
ATOM     12  C   UNL     1      39.244 -25.770 -14.609  0.00  0.00    +0.169 C 
BRANCH  12  13
ATOM     13  O   UNL     1      40.308 -26.716 -14.597  0.00  0.00    -0.379 OA
ATOM     14  H   UNL     1      41.153 -26.255 -14.720  0.00  0.00    +0.211 HD
ENDBRANCH  12  13
ENDBRANCH   9  12
ENDBRANCH   8   9
ENDBRANCH   1   8
TORSDOF 8
ENDMDL
MODEL 8
REMARK VINA RESULT:      -4.9      1.815      2.508
REMARK  Name = 439162
REMARK  8 active torsions:
REMARK  status: ('A' for Active; 'I' for Inactive)
REMARK    1  A    between atoms: O_1  and  P_2
REMARK    2  A    between atoms: O_1  and  C_8
REMARK    3  A    between atoms: P_2  and  O_4
REMARK    4  A    between atoms: P_2  and  O_6
REMARK    5  A    between atoms: C_8  and  C_9
REMARK    6  A    between atoms: C_9  and  O_10
REMARK    7  A    between atoms: C_9  and  C_12
REMARK    8  A    between atoms: C_12  and  O_13
REMARK                            x       y       z     vdW  Elec       q    Type
REMARK                         _______ _______ _______ _____ _____    ______ ____
ROOT
ATOM      1  O   UNL     1      37.806 -24.787 -13.367  0.00  0.00    -0.271 OA
ENDROOT
BRANCH   1   2
ATOM      2  P   UNL     1      37.630 -24.916 -14.967  0.00  0.00    +0.473 P 
ATOM      3  O   UNL     1      36.221 -24.775 -15.466  0.00  0.00    -0.227 OA
BRANCH   2   4
ATOM      4  O   UNL     1      38.352 -26.318 -15.323  0.00  0.00    -0.303 OA
ATOM      5  H   UNL     1      38.331 -26.899 -14.546  0.00  0.00    +0.222 HD
ENDBRANCH   2   4
BRANCH   2   6
ATOM      6  O   UNL     1      38.666 -23.810 -15.530  0.00  0.00    -0.303 OA
ATOM      7  H   UNL     1      38.172 -23.052 -15.880  0.00  0.00    +0.222 HD
ENDBRANCH   2   6
ENDBRANCH   1   2
BRANCH   1   8
ATOM      8  C   UNL     1      36.995 -25.606 -12.531  0.00  0.00    +0.185 C 
BRANCH   8   9
ATOM      9  C   UNL     1      36.099 -24.731 -11.661  0.00  0.00    +0.170 C 
BRANCH   9  10
ATOM     10  O   UNL     1      34.738 -24.950 -12.039  0.00  0.00    -0.379 OA
ATOM     11  H   UNL     1      34.577 -25.902 -12.128  0.00  0.00    +0.211 HD
ENDBRANCH   9  10
BRANCH   9  12
ATOM     12  C   UNL     1      36.407 -23.251 -11.857  0.00  0.00    +0.169 C 
BRANCH  12  13
ATOM     13  O   UNL     1      37.601 -22.931 -11.150  0.00  0.00    -0.379 OA
ATOM     14  H   UNL     1      38.057 -22.201 -11.599  0.00  0.00    +0.211 HD
ENDBRANCH  12  13
ENDBRANCH   9  12
ENDBRANCH   8   9
ENDBRANCH   1   8
TORSDOF 8
ENDMDL
MODEL 9
REMARK VINA RESULT:      -4.9      2.038      3.173
REMARK  Name = 439162
REMARK  8 active torsions:
REMARK  status: ('A' for Active; 'I' for Inactive)
REMARK    1  A    between atoms: O_1  and  P_2
REMARK    2  A    between atoms: O_1  and  C_8
REMARK    3  A    between atoms: P_2  and  O_4
REMARK    4  A    between atoms: P_2  and  O_6
REMARK    5  A    between atoms: C_8  and  C_9
REMARK    6  A    between atoms: C_9  and  O_10
REMARK    7  A    between atoms: C_9  and  C_12
REMARK    8  A    between atoms: C_12  and  O_13
REMARK                            x       y       z     vdW  Elec       q    Type
REMARK                         _______ _______ _______ _____ _____    ______ ____
ROOT
ATOM      1  O   UNL     1      37.479 -22.767 -14.016  0.00  0.00    -0.271 OA
ENDROOT
BRANCH   1   2
ATOM      2  P   UNL     1      37.359 -23.032 -15.605  0.00  0.00    +0.473 P 
ATOM      3  O   UNL     1      36.824 -21.879 -16.403  0.00  0.00    -0.227 OA
BRANCH   2   4
ATOM      4  O   UNL     1      36.501 -24.398 -15.705  0.00  0.00    -0.303 OA
ATOM      5  H   UNL     1      37.102 -25.147 -15.850  0.00  0.00    +0.222 HD
ENDBRANCH   2   4
BRANCH   2   6
ATOM      6  O   UNL     1      38.855 -23.501 -16.002  0.00  0.00    -0.303 OA
ATOM      7  H   UNL     1      39.439 -22.727 -16.033  0.00  0.00    +0.222 HD
ENDBRANCH   2   6
ENDBRANCH   1   2
BRANCH   1   8
ATOM      8  C   UNL     1      36.749 -23.614 -13.134  0.00  0.00    +0.185 C 
BRANCH   8   9
ATOM      9  C   UNL     1      37.700 -24.262 -12.135  0.00  0.00    +0.170 C 
BRANCH   9  10
ATOM     10  O   UNL     1      38.629 -23.276 -11.678  0.00  0.00    -0.379 OA
ATOM     11  H   UNL     1      38.633 -23.261 -10.708  0.00  0.00    +0.211 HD
ENDBRANCH   9  10
BRANCH   9  12
ATOM     12  C   UNL     1      38.495 -25.394 -12.775  0.00  0.00    +0.169 C 
BRANCH  12  13
ATOM     13  O   UNL     1      39.614 -24.842 -13.460  0.00  0.00    -0.379 OA
ATOM     14  H   UNL     1      39.593 -23.875 -13.390  0.00  0.00    +0.211 HD
ENDBRANCH  12  13
ENDBRANCH   9  12
ENDBRANCH   8   9
ENDBRANCH   1   8
TORSDOF 8
ENDMDL
