MODEL 1
REMARK VINA RESULT:      -6.5      0.000      0.000
REMARK  Name = 5288123
REMARK  9 active torsions:
REMARK  status: ('A' for Active; 'I' for Inactive)
REMARK    1  A    between atoms: P_1  and  O_3
REMARK    2  A    between atoms: P_1  and  S_5
REMARK    3  A    between atoms: P_1  and  O_11
REMARK    4  A    between atoms: S_5  and  C_6
REMARK    5  A    between atoms: C_6  and  C_7
REMARK    6  A    between atoms: C_7  and  C_8
REMARK    7  A    between atoms: O_11  and  P_12
REMARK    8  A    between atoms: P_12  and  O_14
REMARK    9  A    between atoms: P_12  and  O_16
REMARK                            x       y       z     vdW  Elec       q    Type
REMARK                         _______ _______ _______ _____ _____    ______ ____
ROOT
ATOM      1  P   UNL     1      37.250 -25.955 -14.778  0.00  0.00    +0.398 P 
ATOM      2  O   UNL     1      36.293 -26.841 -15.531  0.00  0.00    -0.246 OA
ENDROOT
BRANCH   1   3
ATOM      3  O   UNL     1      37.682 -24.646 -15.636  0.00  0.00    -0.316 OA
ATOM      4  H   UNL     1      38.597 -24.407 -15.421  0.00  0.00    +0.221 HD
ENDBRANCH   1   3
BRANCH   1   5
ATOM      5  S   UNL     1      36.440 -25.332 -12.953  0.00  0.00    -0.031 S 
BRANCH   5   6
ATOM      6  C   UNL     1      35.395 -23.905 -13.367  0.00  0.00    +0.069 C 
BRANCH   6   7
ATOM      7  C   UNL     1      34.200 -24.346 -14.209  0.00  0.00    +0.012 C 
BRANCH   7   8
ATOM      8  C   UNL     1      33.631 -23.215 -15.089  0.00  0.00    +0.001 C 
ATOM      9  C   UNL     1      34.213 -23.314 -16.502  0.00  0.00    +0.000 C 
ATOM     10  C   UNL     1      32.103 -23.241 -15.159  0.00  0.00    +0.000 C 
ENDBRANCH   7   8
ENDBRANCH   6   7
ENDBRANCH   5   6
ENDBRANCH   1   5
BRANCH   1  11
ATOM     11  O   UNL     1      38.685 -26.662 -14.516  0.00  0.00    -0.200 OA
BRANCH  11  12
ATOM     12  P   UNL     1      40.186 -26.068 -14.556  0.00  0.00    +0.480 P 
ATOM     13  O   UNL     1      41.233 -26.933 -13.920  0.00  0.00    -0.227 OA
BRANCH  12  14
ATOM     14  O   UNL     1      40.025 -24.601 -13.894  0.00  0.00    -0.302 OA
ATOM     15  H   UNL     1      39.542 -24.675 -13.057  0.00  0.00    +0.222 HD
ENDBRANCH  12  14
BRANCH  12  16
ATOM     16  O   UNL     1      40.419 -25.743 -16.122  0.00  0.00    -0.302 OA
ATOM     17  H   UNL     1      40.739 -26.539 -16.573  0.00  0.00    +0.222 HD
ENDBRANCH  12  16
ENDBRANCH  11  12
ENDBRANCH   1  11
TORSDOF 9
ENDMDL
MODEL 2
REMARK VINA RESULT:      -6.4      1.594      2.666
REMARK  Name = 5288123
REMARK  9 active torsions:
REMARK  status: ('A' for Active; 'I' for Inactive)
REMARK    1  A    between atoms: P_1  and  O_3
REMARK    2  A    between atoms: P_1  and  S_5
REMARK    3  A    between atoms: P_1  and  O_11
REMARK    4  A    between atoms: S_5  and  C_6
REMARK    5  A    between atoms: C_6  and  C_7
REMARK    6  A    between atoms: C_7  and  C_8
REMARK    7  A    between atoms: O_11  and  P_12
REMARK    8  A    between atoms: P_12  and  O_14
REMARK    9  A    between atoms: P_12  and  O_16
REMARK                            x       y       z     vdW  Elec       q    Type
REMARK                         _______ _______ _______ _____ _____    ______ ____
ROOT
ATOM      1  P   UNL     1      38.190 -24.371 -12.673  0.00  0.00    +0.398 P 
ATOM      2  O   UNL     1      38.722 -23.377 -11.675  0.00  0.00    -0.246 OA
ENDROOT
BRANCH   1   3
ATOM      3  O   UNL     1      38.090 -25.869 -12.056  0.00  0.00    -0.316 OA
ATOM      4  H   UNL     1      37.922 -26.503 -12.771  0.00  0.00    +0.221 HD
ENDBRANCH   1   3
BRANCH   1   5
ATOM      5  S   UNL     1      36.306 -23.805 -13.387  0.00  0.00    -0.031 S 
BRANCH   5   6
ATOM      6  C   UNL     1      36.455 -23.862 -15.196  0.00  0.00    +0.069 C 
BRANCH   6   7
ATOM      7  C   UNL     1      35.478 -22.882 -15.843  0.00  0.00    +0.012 C 
BRANCH   7   8
ATOM      8  C   UNL     1      34.151 -23.543 -16.264  0.00  0.00    +0.001 C 
ATOM      9  C   UNL     1      33.082 -23.289 -15.197  0.00  0.00    +0.000 C 
ATOM     10  C   UNL     1      33.652 -23.042 -17.621  0.00  0.00    +0.000 C 
ENDBRANCH   7   8
ENDBRANCH   6   7
ENDBRANCH   5   6
ENDBRANCH   1   5
BRANCH   1  11
ATOM     11  O   UNL     1      39.192 -24.600 -13.927  0.00  0.00    -0.200 OA
BRANCH  11  12
ATOM     12  P   UNL     1      39.849 -25.946 -14.530  0.00  0.00    +0.480 P 
ATOM     13  O   UNL     1      41.013 -26.491 -13.756  0.00  0.00    -0.227 OA
BRANCH  12  14
ATOM     14  O   UNL     1      40.181 -25.545 -16.061  0.00  0.00    -0.302 OA
ATOM     15  H   UNL     1      39.945 -24.617 -16.211  0.00  0.00    +0.222 HD
ENDBRANCH  12  14
BRANCH  12  16
ATOM     16  O   UNL     1      38.589 -26.947 -14.675  0.00  0.00    -0.302 OA
ATOM     17  H   UNL     1      38.907 -27.839 -14.883  0.00  0.00    +0.222 HD
ENDBRANCH  12  16
ENDBRANCH  11  12
ENDBRANCH   1  11
TORSDOF 9
ENDMDL
MODEL 3
REMARK VINA RESULT:      -6.3      3.142      4.463
REMARK  Name = 5288123
REMARK  9 active torsions:
REMARK  status: ('A' for Active; 'I' for Inactive)
REMARK    1  A    between atoms: P_1  and  O_3
REMARK    2  A    between atoms: P_1  and  S_5
REMARK    3  A    between atoms: P_1  and  O_11
REMARK    4  A    between atoms: S_5  and  C_6
REMARK    5  A    between atoms: C_6  and  C_7
REMARK    6  A    between atoms: C_7  and  C_8
REMARK    7  A    between atoms: O_11  and  P_12
REMARK    8  A    between atoms: P_12  and  O_14
REMARK    9  A    between atoms: P_12  and  O_16
REMARK                            x       y       z     vdW  Elec       q    Type
REMARK                         _______ _______ _______ _____ _____    ______ ____
ROOT
ATOM      1  P   UNL     1      36.443 -23.621 -15.196  0.00  0.00    +0.398 P 
ATOM      2  O   UNL     1      36.122 -23.148 -13.803  0.00  0.00    -0.246 OA
ENDROOT
BRANCH   1   3
ATOM      3  O   UNL     1      35.193 -24.391 -15.888  0.00  0.00    -0.316 OA
ATOM      4  H   UNL     1      35.091 -24.085 -16.803  0.00  0.00    +0.221 HD
ENDBRANCH   1   3
BRANCH   1   5
ATOM      5  S   UNL     1      37.026 -22.033 -16.426  0.00  0.00    -0.031 S 
BRANCH   5   6
ATOM      6  C   UNL     1      35.869 -22.076 -17.826  0.00  0.00    +0.069 C 
BRANCH   6   7
ATOM      7  C   UNL     1      36.427 -21.279 -19.004  0.00  0.00    +0.012 C 
BRANCH   7   8
ATOM      8  C   UNL     1      35.415 -21.114 -20.155  0.00  0.00    +0.001 C 
ATOM      9  C   UNL     1      33.990 -21.287 -19.622  0.00  0.00    +0.000 C 
ATOM     10  C   UNL     1      35.542 -19.760 -20.856  0.00  0.00    +0.000 C 
ENDBRANCH   7   8
ENDBRANCH   6   7
ENDBRANCH   5   6
ENDBRANCH   1   5
BRANCH   1  11
ATOM     11  O   UNL     1      37.588 -24.768 -15.221  0.00  0.00    -0.200 OA
BRANCH  11  12
ATOM     12  P   UNL     1      37.537 -26.331 -14.819  0.00  0.00    +0.480 P 
ATOM     13  O   UNL     1      38.861 -26.947 -14.474  0.00  0.00    -0.227 OA
BRANCH  12  14
ATOM     14  O   UNL     1      36.777 -27.015 -16.073  0.00  0.00    -0.302 OA
ATOM     15  H   UNL     1      36.723 -26.379 -16.803  0.00  0.00    +0.222 HD
ENDBRANCH  12  14
BRANCH  12  16
ATOM     16  O   UNL     1      36.428 -26.380 -13.644  0.00  0.00    -0.302 OA
ATOM     17  H   UNL     1      35.542 -26.301 -14.032  0.00  0.00    +0.222 HD
ENDBRANCH  12  16
ENDBRANCH  11  12
ENDBRANCH   1  11
TORSDOF 9
ENDMDL
MODEL 4
REMARK VINA RESULT:      -6.3      1.662      2.149
REMARK  Name = 5288123
REMARK  9 active torsions:
REMARK  status: ('A' for Active; 'I' for Inactive)
REMARK    1  A    between atoms: P_1  and  O_3
REMARK    2  A    between atoms: P_1  and  S_5
REMARK    3  A    between atoms: P_1  and  O_11
REMARK    4  A    between atoms: S_5  and  C_6
REMARK    5  A    between atoms: C_6  and  C_7
REMARK    6  A    between atoms: C_7  and  C_8
REMARK    7  A    between atoms: O_11  and  P_12
REMARK    8  A    between atoms: P_12  and  O_14
REMARK    9  A    between atoms: P_12  and  O_16
REMARK                            x       y       z     vdW  Elec       q    Type
REMARK                         _______ _______ _______ _____ _____    ______ ____
ROOT
ATOM      1  P   UNL     1      37.551 -25.061 -12.557  0.00  0.00    +0.398 P 
ATOM      2  O   UNL     1      37.575 -24.640 -11.112  0.00  0.00    -0.246 OA
ENDROOT
BRANCH   1   3
ATOM      3  O   UNL     1      36.867 -26.519 -12.762  0.00  0.00    -0.316 OA
ATOM      4  H   UNL     1      36.282 -26.496 -13.535  0.00  0.00    +0.221 HD
ENDBRANCH   1   3
BRANCH   1   5
ATOM      5  S   UNL     1      36.539 -23.666 -13.743  0.00  0.00    -0.031 S 
BRANCH   5   6
ATOM      6  C   UNL     1      35.268 -24.626 -14.615  0.00  0.00    +0.069 C 
BRANCH   6   7
ATOM      7  C   UNL     1      33.873 -24.207 -14.154  0.00  0.00    +0.012 C 
BRANCH   7   8
ATOM      8  C   UNL     1      33.214 -23.175 -15.089  0.00  0.00    +0.001 C 
ATOM      9  C   UNL     1      33.734 -23.360 -16.517  0.00  0.00    +0.000 C 
ATOM     10  C   UNL     1      31.687 -23.270 -15.082  0.00  0.00    +0.000 C 
ENDBRANCH   7   8
ENDBRANCH   6   7
ENDBRANCH   5   6
ENDBRANCH   1   5
BRANCH   1  11
ATOM     11  O   UNL     1      39.033 -25.307 -13.165  0.00  0.00    -0.200 OA
BRANCH  11  12
ATOM     12  P   UNL     1      39.520 -25.704 -14.652  0.00  0.00    +0.480 P 
ATOM     13  O   UNL     1      40.817 -26.455 -14.722  0.00  0.00    -0.227 OA
BRANCH  12  14
ATOM     14  O   UNL     1      39.513 -24.290 -15.437  0.00  0.00    -0.302 OA
ATOM     15  H   UNL     1      38.611 -24.088 -15.730  0.00  0.00    +0.222 HD
ENDBRANCH  12  14
BRANCH  12  16
ATOM     16  O   UNL     1      38.243 -26.477 -15.271  0.00  0.00    -0.302 OA
ATOM     17  H   UNL     1      38.156 -26.256 -16.212  0.00  0.00    +0.222 HD
ENDBRANCH  12  16
ENDBRANCH  11  12
ENDBRANCH   1  11
TORSDOF 9
ENDMDL
MODEL 5
REMARK VINA RESULT:      -6.2      3.203      4.277
REMARK  Name = 5288123
REMARK  9 active torsions:
REMARK  status: ('A' for Active; 'I' for Inactive)
REMARK    1  A    between atoms: P_1  and  O_3
REMARK    2  A    between atoms: P_1  and  S_5
REMARK    3  A    between atoms: P_1  and  O_11
REMARK    4  A    between atoms: S_5  and  C_6
REMARK    5  A    between atoms: C_6  and  C_7
REMARK    6  A    between atoms: C_7  and  C_8
REMARK    7  A    between atoms: O_11  and  P_12
REMARK    8  A    between atoms: P_12  and  O_14
REMARK    9  A    between atoms: P_12  and  O_16
REMARK                            x       y       z     vdW  Elec       q    Type
REMARK                         _______ _______ _______ _____ _____    ______ ____
ROOT
ATOM      1  P   UNL     1      37.282 -23.908 -14.775  0.00  0.00    +0.398 P 
ATOM      2  O   UNL     1      36.428 -24.969 -15.417  0.00  0.00    -0.246 OA
ENDROOT
BRANCH   1   3
ATOM      3  O   UNL     1      38.816 -24.395 -14.568  0.00  0.00    -0.316 OA
ATOM      4  H   UNL     1      39.293 -23.742 -14.033  0.00  0.00    +0.221 HD
ENDBRANCH   1   3
BRANCH   1   5
ATOM      5  S   UNL     1      37.277 -22.141 -15.894  0.00  0.00    -0.031 S 
BRANCH   5   6
ATOM      6  C   UNL     1      35.980 -22.382 -17.143  0.00  0.00    +0.069 C 
BRANCH   6   7
ATOM      7  C   UNL     1      36.350 -21.664 -18.440  0.00  0.00    +0.012 C 
BRANCH   7   8
ATOM      8  C   UNL     1      35.275 -21.805 -19.536  0.00  0.00    +0.001 C 
ATOM      9  C   UNL     1      33.956 -22.272 -18.913  0.00  0.00    +0.000 C 
ATOM     10  C   UNL     1      35.047 -20.501 -20.303  0.00  0.00    +0.000 C 
ENDBRANCH   7   8
ENDBRANCH   6   7
ENDBRANCH   5   6
ENDBRANCH   1   5
BRANCH   1  11
ATOM     11  O   UNL     1      36.835 -23.580 -13.252  0.00  0.00    -0.200 OA
BRANCH  11  12
ATOM     12  P   UNL     1      37.442 -24.068 -11.837  0.00  0.00    +0.480 P 
ATOM     13  O   UNL     1      36.538 -23.879 -10.654  0.00  0.00    -0.227 OA
BRANCH  12  14
ATOM     14  O   UNL     1      38.852 -23.282 -11.744  0.00  0.00    -0.302 OA
ATOM     15  H   UNL     1      39.446 -23.600 -12.442  0.00  0.00    +0.222 HD
ENDBRANCH  12  14
BRANCH  12  16
ATOM     16  O   UNL     1      37.888 -25.594 -12.126  0.00  0.00    -0.302 OA
ATOM     17  H   UNL     1      38.203 -25.671 -13.041  0.00  0.00    +0.222 HD
ENDBRANCH  12  16
ENDBRANCH  11  12
ENDBRANCH   1  11
TORSDOF 9
ENDMDL
MODEL 6
REMARK VINA RESULT:      -6.1      2.784      3.537
REMARK  Name = 5288123
REMARK  9 active torsions:
REMARK  status: ('A' for Active; 'I' for Inactive)
REMARK    1  A    between atoms: P_1  and  O_3
REMARK    2  A    between atoms: P_1  and  S_5
REMARK    3  A    between atoms: P_1  and  O_11
REMARK    4  A    between atoms: S_5  and  C_6
REMARK    5  A    between atoms: C_6  and  C_7
REMARK    6  A    between atoms: C_7  and  C_8
REMARK    7  A    between atoms: O_11  and  P_12
REMARK    8  A    between atoms: P_12  and  O_14
REMARK    9  A    between atoms: P_12  and  O_16
REMARK                            x       y       z     vdW  Elec       q    Type
REMARK                         _______ _______ _______ _____ _____    ______ ____
ROOT
ATOM      1  P   UNL     1      37.048 -24.605 -14.684  0.00  0.00    +0.398 P 
ATOM      2  O   UNL     1      36.547 -24.863 -13.288  0.00  0.00    -0.246 OA
ENDROOT
BRANCH   1   3
ATOM      3  O   UNL     1      36.763 -25.854 -15.681  0.00  0.00    -0.316 OA
ATOM      4  H   UNL     1      36.652 -25.526 -16.587  0.00  0.00    +0.221 HD
ENDBRANCH   1   3
BRANCH   1   5
ATOM      5  S   UNL     1      36.190 -22.879 -15.498  0.00  0.00    -0.031 S 
BRANCH   5   6
ATOM      6  C   UNL     1      37.382 -22.308 -16.744  0.00  0.00    +0.069 C 
BRANCH   6   7
ATOM      7  C   UNL     1      36.772 -21.193 -17.593  0.00  0.00    +0.012 C 
BRANCH   7   8
ATOM      8  C   UNL     1      36.296 -21.678 -18.976  0.00  0.00    +0.001 C 
ATOM      9  C   UNL     1      34.813 -22.056 -18.911  0.00  0.00    +0.000 C 
ATOM     10  C   UNL     1      36.513 -20.631 -20.070  0.00  0.00    +0.000 C 
ENDBRANCH   7   8
ENDBRANCH   6   7
ENDBRANCH   5   6
ENDBRANCH   1   5
BRANCH   1  11
ATOM     11  O   UNL     1      38.663 -24.489 -14.760  0.00  0.00    -0.200 OA
BRANCH  11  12
ATOM     12  P   UNL     1      39.814 -25.621 -14.723  0.00  0.00    +0.480 P 
ATOM     13  O   UNL     1      40.910 -25.386 -13.726  0.00  0.00    -0.227 OA
BRANCH  12  14
ATOM     14  O   UNL     1      40.304 -25.707 -16.262  0.00  0.00    -0.302 OA
ATOM     15  H   UNL     1      40.770 -24.890 -16.498  0.00  0.00    +0.222 HD
ENDBRANCH  12  14
BRANCH  12  16
ATOM     16  O   UNL     1      38.983 -26.993 -14.523  0.00  0.00    -0.302 OA
ATOM     17  H   UNL     1      38.929 -27.203 -13.577  0.00  0.00    +0.222 HD
ENDBRANCH  12  16
ENDBRANCH  11  12
ENDBRANCH   1  11
TORSDOF 9
ENDMDL
MODEL 7
REMARK VINA RESULT:      -6.0      3.705      4.819
REMARK  Name = 5288123
REMARK  9 active torsions:
REMARK  status: ('A' for Active; 'I' for Inactive)
REMARK    1  A    between atoms: P_1  and  O_3
REMARK    2  A    between atoms: P_1  and  S_5
REMARK    3  A    between atoms: P_1  and  O_11
REMARK    4  A    between atoms: S_5  and  C_6
REMARK    5  A    between atoms: C_6  and  C_7
REMARK    6  A    between atoms: C_7  and  C_8
REMARK    7  A    between atoms: O_11  and  P_12
REMARK    8  A    between atoms: P_12  and  O_14
REMARK    9  A    between atoms: P_12  and  O_16
REMARK                            x       y       z     vdW  Elec       q    Type
REMARK                         _______ _______ _______ _____ _____    ______ ____
ROOT
ATOM      1  P   UNL     1      34.625 -24.096 -13.666  0.00  0.00    +0.398 P 
ATOM      2  O   UNL     1      35.547 -25.154 -14.212  0.00  0.00    -0.246 OA
ENDROOT
BRANCH   1   3
ATOM      3  O   UNL     1      34.910 -22.636 -14.315  0.00  0.00    -0.316 OA
ATOM      4  H   UNL     1      35.539 -22.152 -13.758  0.00  0.00    +0.221 HD
ENDBRANCH   1   3
BRANCH   1   5
ATOM      5  S   UNL     1      32.618 -24.596 -13.977  0.00  0.00    -0.031 S 
BRANCH   5   6
ATOM      6  C   UNL     1      32.037 -23.432 -15.246  0.00  0.00    +0.069 C 
BRANCH   6   7
ATOM      7  C   UNL     1      30.678 -22.854 -14.857  0.00  0.00    +0.012 C 
BRANCH   7   8
ATOM      8  C   UNL     1      29.519 -23.414 -15.705  0.00  0.00    +0.001 C 
ATOM      9  C   UNL     1      29.057 -24.757 -15.132  0.00  0.00    +0.000 C 
ATOM     10  C   UNL     1      28.331 -22.452 -15.781  0.00  0.00    +0.000 C 
ENDBRANCH   7   8
ENDBRANCH   6   7
ENDBRANCH   5   6
ENDBRANCH   1   5
BRANCH   1  11
ATOM     11  O   UNL     1      34.867 -23.805 -12.089  0.00  0.00    -0.200 OA
BRANCH  11  12
ATOM     12  P   UNL     1      36.106 -24.168 -11.119  0.00  0.00    +0.480 P 
ATOM     13  O   UNL     1      37.189 -23.133 -11.050  0.00  0.00    -0.227 OA
BRANCH  12  14
ATOM     14  O   UNL     1      36.587 -25.617 -11.653  0.00  0.00    -0.302 OA
ATOM     15  H   UNL     1      36.604 -26.244 -10.914  0.00  0.00    +0.222 HD
ENDBRANCH  12  14
BRANCH  12  16
ATOM     16  O   UNL     1      35.391 -24.512  -9.711  0.00  0.00    -0.302 OA
ATOM     17  H   UNL     1      34.574 -25.009  -9.876  0.00  0.00    +0.222 HD
ENDBRANCH  12  16
ENDBRANCH  11  12
ENDBRANCH   1  11
TORSDOF 9
ENDMDL
MODEL 8
REMARK VINA RESULT:      -5.9      2.635      3.638
REMARK  Name = 5288123
REMARK  9 active torsions:
REMARK  status: ('A' for Active; 'I' for Inactive)
REMARK    1  A    between atoms: P_1  and  O_3
REMARK    2  A    between atoms: P_1  and  S_5
REMARK    3  A    between atoms: P_1  and  O_11
REMARK    4  A    between atoms: S_5  and  C_6
REMARK    5  A    between atoms: C_6  and  C_7
REMARK    6  A    between atoms: C_7  and  C_8
REMARK    7  A    between atoms: O_11  and  P_12
REMARK    8  A    between atoms: P_12  and  O_14
REMARK    9  A    between atoms: P_12  and  O_16
REMARK                            x       y       z     vdW  Elec       q    Type
REMARK                         _______ _______ _______ _____ _____    ______ ____
ROOT
ATOM      1  P   UNL     1      36.528 -24.251 -14.675  0.00  0.00    +0.398 P 
ATOM      2  O   UNL     1      36.520 -25.589 -15.366  0.00  0.00    -0.246 OA
ENDROOT
BRANCH   1   3
ATOM      3  O   UNL     1      38.032 -23.688 -14.442  0.00  0.00    -0.316 OA
ATOM      4  H   UNL     1      37.991 -22.840 -13.973  0.00  0.00    +0.221 HD
ENDBRANCH   1   3
BRANCH   1   5
ATOM      5  S   UNL     1      35.431 -22.830 -15.750  0.00  0.00    -0.031 S 
BRANCH   5   6
ATOM      6  C   UNL     1      33.775 -23.554 -15.927  0.00  0.00    +0.069 C 
BRANCH   6   7
ATOM      7  C   UNL     1      32.952 -23.320 -14.662  0.00  0.00    +0.012 C 
BRANCH   7   8
ATOM      8  C   UNL     1      31.492 -22.920 -14.956  0.00  0.00    +0.001 C 
ATOM      9  C   UNL     1      31.226 -22.996 -16.462  0.00  0.00    +0.000 C 
ATOM     10  C   UNL     1      30.484 -23.795 -14.210  0.00  0.00    +0.000 C 
ENDBRANCH   7   8
ENDBRANCH   6   7
ENDBRANCH   5   6
ENDBRANCH   1   5
BRANCH   1  11
ATOM     11  O   UNL     1      35.967 -24.325 -13.156  0.00  0.00    -0.200 OA
BRANCH  11  12
ATOM     12  P   UNL     1      36.601 -24.971 -11.819  0.00  0.00    +0.480 P 
ATOM     13  O   UNL     1      37.803 -24.259 -11.273  0.00  0.00    -0.227 OA
BRANCH  12  14
ATOM     14  O   UNL     1      36.858 -26.513 -12.234  0.00  0.00    -0.302 OA
ATOM     15  H   UNL     1      37.264 -26.547 -13.114  0.00  0.00    +0.222 HD
ENDBRANCH  12  14
BRANCH  12  16
ATOM     16  O   UNL     1      35.340 -25.064 -10.813  0.00  0.00    -0.302 OA
ATOM     17  H   UNL     1      34.711 -24.355 -11.016  0.00  0.00    +0.222 HD
ENDBRANCH  12  16
ENDBRANCH  11  12
ENDBRANCH   1  11
TORSDOF 9
ENDMDL
MODEL 9
REMARK VINA RESULT:      -5.8      2.136      3.142
REMARK  Name = 5288123
REMARK  9 active torsions:
REMARK  status: ('A' for Active; 'I' for Inactive)
REMARK    1  A    between atoms: P_1  and  O_3
REMARK    2  A    between atoms: P_1  and  S_5
REMARK    3  A    between atoms: P_1  and  O_11
REMARK    4  A    between atoms: S_5  and  C_6
REMARK    5  A    between atoms: C_6  and  C_7
REMARK    6  A    between atoms: C_7  and  C_8
REMARK    7  A    between atoms: O_11  and  P_12
REMARK    8  A    between atoms: P_12  and  O_14
REMARK    9  A    between atoms: P_12  and  O_16
REMARK                            x       y       z     vdW  Elec       q    Type
REMARK                         _______ _______ _______ _____ _____    ______ ____
ROOT
ATOM      1  P   UNL     1      37.742 -25.566 -13.169  0.00  0.00    +0.398 P 
ATOM      2  O   UNL     1      38.255 -24.367 -12.415  0.00  0.00    -0.246 OA
ENDROOT
BRANCH   1   3
ATOM      3  O   UNL     1      37.022 -26.644 -12.193  0.00  0.00    -0.316 OA
ATOM      4  H   UNL     1      37.127 -26.366 -11.269  0.00  0.00    +0.221 HD
ENDBRANCH   1   3
BRANCH   1   5
ATOM      5  S   UNL     1      36.397 -25.007 -14.670  0.00  0.00    -0.031 S 
BRANCH   5   6
ATOM      6  C   UNL     1      36.768 -23.260 -15.004  0.00  0.00    +0.069 C 
BRANCH   6   7
ATOM      7  C   UNL     1      35.875 -22.730 -16.124  0.00  0.00    +0.012 C 
BRANCH   7   8
ATOM      8  C   UNL     1      36.672 -22.164 -17.316  0.00  0.00    +0.001 C 
ATOM      9  C   UNL     1      35.724 -21.859 -18.478  0.00  0.00    +0.000 C 
ATOM     10  C   UNL     1      37.458 -20.903 -16.948  0.00  0.00    +0.000 C 
ENDBRANCH   7   8
ENDBRANCH   6   7
ENDBRANCH   5   6
ENDBRANCH   1   5
BRANCH   1  11
ATOM     11  O   UNL     1      38.932 -26.455 -13.818  0.00  0.00    -0.200 OA
BRANCH  11  12
ATOM     12  P   UNL     1      40.353 -26.028 -14.453  0.00  0.00    +0.480 P 
ATOM     13  O   UNL     1      40.405 -26.013 -15.953  0.00  0.00    -0.227 OA
BRANCH  12  14
ATOM     14  O   UNL     1      41.398 -27.042 -13.749  0.00  0.00    -0.302 OA
ATOM     15  H   UNL     1      41.735 -27.668 -14.408  0.00  0.00    +0.222 HD
ENDBRANCH  12  14
BRANCH  12  16
ATOM     16  O   UNL     1      40.673 -24.613 -13.740  0.00  0.00    -0.302 OA
ATOM     17  H   UNL     1      40.475 -24.677 -12.792  0.00  0.00    +0.222 HD
ENDBRANCH  12  16
ENDBRANCH  11  12
ENDBRANCH   1  11
TORSDOF 9
ENDMDL
