MODEL 1
REMARK VINA RESULT:      -8.8      0.000      0.000
REMARK  Name = 5311447
REMARK  11 active torsions:
REMARK  status: ('A' for Active; 'I' for Inactive)
REMARK    1  A    between atoms: N_1  and  C_4
REMARK    2  A    between atoms: N_1  and  C_21
REMARK    3  A    between atoms: C_4  and  C_14
REMARK    4  A    between atoms: C_12  and  C_18
REMARK    5  A    between atoms: C_18  and  O_19
REMARK    6  A    between atoms: C_21  and  C_23
REMARK    7  A    between atoms: C_21  and  C_27
REMARK    8  A    between atoms: C_23  and  O_24
REMARK    9  A    between atoms: O_24  and  C_25
REMARK   10  A    between atoms: C_27  and  C_28
REMARK   11  A    between atoms: C_28  and  C_29
REMARK                            x       y       z     vdW  Elec       q    Type
REMARK                         _______ _______ _______ _____ _____    ______ ____
ROOT
ATOM      1  N   UNK A   1      32.676 -23.619 -15.213  0.00  0.00    +0.399 N 
ATOM      2  H   UNK A   1      32.292 -23.217 -14.358  0.00  0.00    -0.083 HD
ATOM      3  H   UNK A   1      32.304 -24.556 -15.365  0.00  0.00    -0.083 HD
ENDROOT
BRANCH   1   4
ATOM      4  C   UNK A   1      34.121 -23.709 -15.091  0.00  0.00    +0.018 C 
ATOM      5  C   UNK A   1      34.784 -22.413 -15.510  0.00  0.00    -0.014 C 
BRANCH   4  14
ATOM      6  S   UNK A   1      39.025 -24.212 -13.251  0.00  0.00    -0.129 S 
ATOM      7  S   UNK A   1      38.666 -26.875 -14.545  0.00  0.00    -0.129 S 
ATOM      8  O   UNK A   1      33.609 -23.686 -12.766  0.00  0.00    -0.277 OA
ATOM      9  N   UNK A   1      35.642 -24.605 -13.390  0.00  0.00    -0.271 N 
ATOM     10  C   UNK A   1      37.818 -25.551 -13.620  0.00  0.00    +0.098 C 
ATOM     11  C   UNK A   1      37.159 -26.091 -12.338  0.00  0.00    +0.053 C 
ATOM     12  C   UNK A   1      35.992 -25.135 -12.079  0.00  0.00    +0.176 C 
ATOM     13  C   UNK A   1      36.628 -24.989 -14.404  0.00  0.00    +0.114 C 
ATOM     14  C   UNK A   1      34.420 -23.997 -13.641  0.00  0.00    +0.206 C 
ATOM     15  C   UNK A   1      40.503 -25.050 -13.878  0.00  0.00    +0.070 C 
ATOM     16  C   UNK A   1      40.090 -25.890 -15.067  0.00  0.00    +0.070 C 
BRANCH  12  18
ATOM     17  O   UNK A   1      36.875 -22.946 -11.548  0.00  0.00    -0.248 OA
ATOM     18  C   UNK A   1      36.381 -24.000 -11.176  0.00  0.00    +0.332 C 
BRANCH  18  19
ATOM     19  O   UNK A   1      36.114 -24.304  -9.882  0.00  0.00    -0.479 OA
ATOM     20  H   UNK A   1      36.580 -24.996  -9.457  0.00  0.00    +0.295 HD
ENDBRANCH  18  19
ENDBRANCH  12  18
ENDBRANCH   4  14
ENDBRANCH   1   4
BRANCH   1  21
ATOM     21  C   UNK A   0      32.296 -22.781 -16.345  0.00  0.00    +0.041 C 
BRANCH  21  23
ATOM     22  O   UNK A   0      30.045 -22.178 -17.074  0.00  0.00    -0.252 OA
ATOM     23  C   UNK A   0      30.815 -23.004 -16.603  0.00  0.00    +0.297 C 
BRANCH  23  24
ATOM     24  O   UNK A   0      30.483 -24.278 -16.233  0.00  0.00    -0.450 OA
BRANCH  24  25
ATOM     25  C   UNK A   0      29.102 -24.492 -15.925  0.00  0.00    +0.208 C 
ATOM     26  C   UNK A   0      28.999 -25.209 -14.596  0.00  0.00    +0.051 C 
ENDBRANCH  24  25
ENDBRANCH  23  24
ENDBRANCH  21  23
BRANCH  21  27
ATOM     27  C   UNK A   0      33.099 -23.135 -17.608  0.00  0.00    -0.006 C 
BRANCH  27  28
ATOM     28  C   UNK A   0      32.851 -22.222 -18.819  0.00  0.00    +0.025 C 
BRANCH  28  29
ATOM     29  C   UNK A   0      34.098 -21.551 -19.339  0.00  0.00    -0.022 C 
ATOM     30  C   UNK A   0      33.996 -20.493 -20.241  0.00  0.00    -0.004 C 
ATOM     31  C   UNK A   0      35.353 -21.991 -18.917  0.00  0.00    -0.004 C 
ATOM     32  C   UNK A   0      35.149 -19.873 -20.722  0.00  0.00    -0.000 C 
ATOM     33  C   UNK A   0      36.506 -21.371 -19.398  0.00  0.00    -0.000 C 
ATOM     34  C   UNK A   0      36.405 -20.312 -20.300  0.00  0.00    -0.000 C 
ENDBRANCH  28  29
ENDBRANCH  27  28
ENDBRANCH  21  27
ENDBRANCH   1  21
TORSDOF 11
ENDMDL
MODEL 2
REMARK VINA RESULT:      -8.6      3.308      6.486
REMARK  Name = 5311447
REMARK  11 active torsions:
REMARK  status: ('A' for Active; 'I' for Inactive)
REMARK    1  A    between atoms: N_1  and  C_4
REMARK    2  A    between atoms: N_1  and  C_21
REMARK    3  A    between atoms: C_4  and  C_14
REMARK    4  A    between atoms: C_12  and  C_18
REMARK    5  A    between atoms: C_18  and  O_19
REMARK    6  A    between atoms: C_21  and  C_23
REMARK    7  A    between atoms: C_21  and  C_27
REMARK    8  A    between atoms: C_23  and  O_24
REMARK    9  A    between atoms: O_24  and  C_25
REMARK   10  A    between atoms: C_27  and  C_28
REMARK   11  A    between atoms: C_28  and  C_29
REMARK                            x       y       z     vdW  Elec       q    Type
REMARK                         _______ _______ _______ _____ _____    ______ ____
ROOT
ATOM      1  N   UNK A   1      35.421 -22.217 -15.699  0.00  0.00    +0.399 N 
ATOM      2  H   UNK A   1      35.676 -22.481 -14.747  0.00  0.00    -0.083 HD
ATOM      3  H   UNK A   1      35.271 -21.211 -15.763  0.00  0.00    -0.083 HD
ENDROOT
BRANCH   1   4
ATOM      4  C   UNK A   1      34.188 -22.892 -16.066  0.00  0.00    +0.018 C 
ATOM      5  C   UNK A   1      34.472 -24.157 -16.851  0.00  0.00    -0.014 C 
BRANCH   4  14
ATOM      6  S   UNK A   1      29.349 -24.958 -15.965  0.00  0.00    -0.129 S 
ATOM      7  S   UNK A   1      28.697 -22.101 -16.521  0.00  0.00    -0.129 S 
ATOM      8  O   UNK A   1      34.119 -23.469 -13.758  0.00  0.00    -0.277 OA
ATOM      9  N   UNK A   1      32.089 -23.262 -14.854  0.00  0.00    -0.271 N 
ATOM     10  C   UNK A   1      29.837 -23.215 -15.632  0.00  0.00    +0.098 C 
ATOM     11  C   UNK A   1      29.863 -22.911 -14.124  0.00  0.00    +0.053 C 
ATOM     12  C   UNK A   1      31.251 -23.368 -13.667  0.00  0.00    +0.176 C 
ATOM     13  C   UNK A   1      31.291 -22.984 -16.052  0.00  0.00    +0.114 C 
ATOM     14  C   UNK A   1      33.475 -23.231 -14.782  0.00  0.00    +0.206 C 
ATOM     15  C   UNK A   1      27.832 -24.605 -16.890  0.00  0.00    +0.070 C 
ATOM     16  C   UNK A   1      28.056 -23.333 -17.679  0.00  0.00    +0.070 C 
BRANCH  12  18
ATOM     17  O   UNK A   1      31.950 -25.683 -13.641  0.00  0.00    -0.248 OA
ATOM     18  C   UNK A   1      31.248 -24.790 -13.189  0.00  0.00    +0.332 C 
BRANCH  18  19
ATOM     19  O   UNK A   1      30.354 -24.957 -12.184  0.00  0.00    -0.479 OA
ATOM     20  H   UNK A   1      29.763 -25.683 -12.199  0.00  0.00    +0.295 HD
ENDBRANCH  18  19
ENDBRANCH  12  18
ENDBRANCH   4  14
ENDBRANCH   1   4
BRANCH   1  21
ATOM     21  C   UNK A   0      36.507 -22.582 -16.601  0.00  0.00    +0.041 C 
BRANCH  21  23
ATOM     22  O   UNK A   0      38.856 -23.081 -16.159  0.00  0.00    -0.252 OA
ATOM     23  C   UNK A   0      37.714 -22.932 -15.746  0.00  0.00    +0.297 C 
BRANCH  23  24
ATOM     24  O   UNK A   0      37.320 -23.046 -14.441  0.00  0.00    -0.450 OA
BRANCH  24  25
ATOM     25  C   UNK A   0      37.755 -24.230 -13.765  0.00  0.00    +0.208 C 
ATOM     26  C   UNK A   0      36.947 -25.408 -14.265  0.00  0.00    +0.051 C 
ENDBRANCH  24  25
ENDBRANCH  23  24
ENDBRANCH  21  23
BRANCH  21  27
ATOM     27  C   UNK A   0      36.867 -21.429 -17.552  0.00  0.00    -0.006 C 
BRANCH  27  28
ATOM     28  C   UNK A   0      36.705 -21.739 -19.048  0.00  0.00    +0.025 C 
BRANCH  28  29
ATOM     29  C   UNK A   0      35.517 -21.062 -19.684  0.00  0.00    -0.022 C 
ATOM     30  C   UNK A   0      35.710 -20.017 -20.588  0.00  0.00    -0.004 C 
ATOM     31  C   UNK A   0      34.225 -21.482 -19.368  0.00  0.00    -0.004 C 
ATOM     32  C   UNK A   0      34.611 -19.392 -21.175  0.00  0.00    -0.000 C 
ATOM     33  C   UNK A   0      33.125 -20.857 -19.956  0.00  0.00    -0.000 C 
ATOM     34  C   UNK A   0      33.318 -19.812 -20.860  0.00  0.00    -0.000 C 
ENDBRANCH  28  29
ENDBRANCH  27  28
ENDBRANCH  21  27
ENDBRANCH   1  21
TORSDOF 11
ENDMDL
MODEL 3
REMARK VINA RESULT:      -8.5      9.927     14.263
REMARK  Name = 5311447
REMARK  11 active torsions:
REMARK  status: ('A' for Active; 'I' for Inactive)
REMARK    1  A    between atoms: N_1  and  C_4
REMARK    2  A    between atoms: N_1  and  C_21
REMARK    3  A    between atoms: C_4  and  C_14
REMARK    4  A    between atoms: C_12  and  C_18
REMARK    5  A    between atoms: C_18  and  O_19
REMARK    6  A    between atoms: C_21  and  C_23
REMARK    7  A    between atoms: C_21  and  C_27
REMARK    8  A    between atoms: C_23  and  O_24
REMARK    9  A    between atoms: O_24  and  C_25
REMARK   10  A    between atoms: C_27  and  C_28
REMARK   11  A    between atoms: C_28  and  C_29
REMARK                            x       y       z     vdW  Elec       q    Type
REMARK                         _______ _______ _______ _____ _____    ______ ____
ROOT
ATOM      1  N   UNK A   1      33.348 -14.717 -23.682  0.00  0.00    +0.399 N 
ATOM      2  H   UNK A   1      32.611 -14.941 -24.350  0.00  0.00    -0.083 HD
ATOM      3  H   UNK A   1      33.110 -15.072 -22.756  0.00  0.00    -0.083 HD
ENDROOT
BRANCH   1   4
ATOM      4  C   UNK A   1      33.494 -13.274 -23.599  0.00  0.00    +0.018 C 
ATOM      5  C   UNK A   1      32.893 -12.596 -24.814  0.00  0.00    -0.014 C 
BRANCH   4  14
ATOM      6  S   UNK A   1      31.041  -8.632 -23.235  0.00  0.00    -0.129 S 
ATOM      7  S   UNK A   1      33.873  -7.768 -22.880  0.00  0.00    -0.129 S 
ATOM      8  O   UNK A   1      32.338 -13.666 -21.556  0.00  0.00    -0.277 OA
ATOM      9  N   UNK A   1      32.636 -11.459 -22.192  0.00  0.00    -0.271 N 
ATOM     10  C   UNK A   1      32.676  -9.100 -22.533  0.00  0.00    +0.098 C 
ATOM     11  C   UNK A   1      32.584  -9.397 -21.026  0.00  0.00    +0.053 C 
ATOM     12  C   UNK A   1      32.153 -10.865 -20.953  0.00  0.00    +0.176 C 
ATOM     13  C   UNK A   1      33.139 -10.439 -23.117  0.00  0.00    +0.114 C 
ATOM     14  C   UNK A   1      32.772 -12.831 -22.352  0.00  0.00    +0.206 C 
ATOM     15  C   UNK A   1      31.481  -6.955 -23.757  0.00  0.00    +0.070 C 
ATOM     16  C   UNK A   1      32.928  -6.972 -24.200  0.00  0.00    +0.070 C 
BRANCH  12  18
ATOM     17  O   UNK A   1      29.977 -10.762 -19.902  0.00  0.00    -0.248 OA
ATOM     18  C   UNK A   1      30.661 -11.012 -20.883  0.00  0.00    +0.332 C 
BRANCH  18  19
ATOM     19  O   UNK A   1      30.168 -11.467 -22.061  0.00  0.00    -0.479 OA
ATOM     20  H   UNK A   1      30.474 -12.280 -22.414  0.00  0.00    +0.295 HD
ENDBRANCH  18  19
ENDBRANCH  12  18
ENDBRANCH   4  14
ENDBRANCH   1   4
BRANCH   1  21
ATOM     21  C   UNK A   0      34.590 -15.346 -24.114  0.00  0.00    +0.041 C 
BRANCH  21  23
ATOM     22  O   UNK A   0      33.530 -15.927 -26.235  0.00  0.00    -0.252 OA
ATOM     23  C   UNK A   0      34.265 -16.232 -25.305  0.00  0.00    +0.297 C 
BRANCH  23  24
ATOM     24  O   UNK A   0      34.929 -17.420 -25.175  0.00  0.00    -0.450 OA
BRANCH  24  25
ATOM     25  C   UNK A   0      34.107 -18.592 -25.181  0.00  0.00    +0.208 C 
ATOM     26  C   UNK A   0      34.847 -19.717 -24.493  0.00  0.00    +0.051 C 
ENDBRANCH  24  25
ENDBRANCH  23  24
ENDBRANCH  21  23
BRANCH  21  27
ATOM     27  C   UNK A   0      35.216 -16.196 -22.995  0.00  0.00    -0.006 C 
BRANCH  27  28
ATOM     28  C   UNK A   0      34.240 -16.666 -21.906  0.00  0.00    +0.025 C 
BRANCH  28  29
ATOM     29  C   UNK A   0      34.559 -18.033 -21.354  0.00  0.00    -0.022 C 
ATOM     30  C   UNK A   0      35.886 -18.411 -21.150  0.00  0.00    -0.004 C 
ATOM     31  C   UNK A   0      33.526 -18.919 -21.047  0.00  0.00    -0.004 C 
ATOM     32  C   UNK A   0      36.181 -19.675 -20.640  0.00  0.00    -0.000 C 
ATOM     33  C   UNK A   0      33.821 -20.182 -20.536  0.00  0.00    -0.000 C 
ATOM     34  C   UNK A   0      35.148 -20.561 -20.332  0.00  0.00    -0.000 C 
ENDBRANCH  28  29
ENDBRANCH  27  28
ENDBRANCH  21  27
ENDBRANCH   1  21
TORSDOF 11
ENDMDL
MODEL 4
REMARK VINA RESULT:      -8.4      3.835      6.662
REMARK  Name = 5311447
REMARK  11 active torsions:
REMARK  status: ('A' for Active; 'I' for Inactive)
REMARK    1  A    between atoms: N_1  and  C_4
REMARK    2  A    between atoms: N_1  and  C_21
REMARK    3  A    between atoms: C_4  and  C_14
REMARK    4  A    between atoms: C_12  and  C_18
REMARK    5  A    between atoms: C_18  and  O_19
REMARK    6  A    between atoms: C_21  and  C_23
REMARK    7  A    between atoms: C_21  and  C_27
REMARK    8  A    between atoms: C_23  and  O_24
REMARK    9  A    between atoms: O_24  and  C_25
REMARK   10  A    between atoms: C_27  and  C_28
REMARK   11  A    between atoms: C_28  and  C_29
REMARK                            x       y       z     vdW  Elec       q    Type
REMARK                         _______ _______ _______ _____ _____    ______ ____
ROOT
ATOM      1  N   UNK A   1      34.151 -21.532 -18.766  0.00  0.00    +0.399 N 
ATOM      2  H   UNK A   1      34.546 -21.169 -17.898  0.00  0.00    -0.083 HD
ATOM      3  H   UNK A   1      33.421 -20.910 -19.113  0.00  0.00    -0.083 HD
ENDROOT
BRANCH   1   4
ATOM      4  C   UNK A   1      33.564 -22.836 -18.512  0.00  0.00    +0.018 C 
ATOM      5  C   UNK A   1      34.190 -23.896 -19.397  0.00  0.00    -0.014 C 
BRANCH   4  14
ATOM      6  S   UNK A   1      29.904 -24.957 -15.382  0.00  0.00    -0.129 S 
ATOM      7  S   UNK A   1      28.986 -22.120 -15.430  0.00  0.00    -0.129 S 
ATOM      8  O   UNK A   1      34.970 -23.367 -16.666  0.00  0.00    -0.277 OA
ATOM      9  N   UNK A   1      32.698 -23.206 -16.249  0.00  0.00    -0.271 N 
ATOM     10  C   UNK A   1      30.455 -23.202 -15.443  0.00  0.00    +0.098 C 
ATOM     11  C   UNK A   1      31.413 -22.867 -14.287  0.00  0.00    +0.053 C 
ATOM     12  C   UNK A   1      32.791 -23.298 -14.798  0.00  0.00    +0.176 C 
ATOM     13  C   UNK A   1      31.319 -22.962 -16.684  0.00  0.00    +0.114 C 
ATOM     14  C   UNK A   1      33.822 -23.158 -17.061  0.00  0.00    +0.206 C 
ATOM     15  C   UNK A   1      28.136 -24.641 -15.154  0.00  0.00    +0.070 C 
ATOM     16  C   UNK A   1      27.788 -23.382 -15.920  0.00  0.00    +0.070 C 
BRANCH  12  18
ATOM     17  O   UNK A   1      32.306 -25.543 -14.041  0.00  0.00    -0.248 OA
ATOM     18  C   UNK A   1      33.120 -24.710 -14.412  0.00  0.00    +0.332 C 
BRANCH  18  19
ATOM     19  O   UNK A   1      34.450 -24.941 -14.527  0.00  0.00    -0.479 OA
ATOM     20  H   UNK A   1      35.062 -24.394 -14.076  0.00  0.00    +0.295 HD
ENDBRANCH  18  19
ENDBRANCH  12  18
ENDBRANCH   4  14
ENDBRANCH   1   4
BRANCH   1  21
ATOM     21  C   UNK A   0      35.205 -21.616 -19.770  0.00  0.00    +0.041 C 
BRANCH  21  23
ATOM     22  O   UNK A   0      36.936 -19.924 -19.452  0.00  0.00    -0.252 OA
ATOM     23  C   UNK A   0      36.463 -21.016 -19.165  0.00  0.00    +0.297 C 
BRANCH  23  24
ATOM     24  O   UNK A   0      36.976 -21.887 -18.245  0.00  0.00    -0.450 OA
BRANCH  24  25
ATOM     25  C   UNK A   0      37.291 -21.322 -16.968  0.00  0.00    +0.208 C 
ATOM     26  C   UNK A   0      37.773 -22.422 -16.047  0.00  0.00    +0.051 C 
ENDBRANCH  24  25
ENDBRANCH  23  24
ENDBRANCH  21  23
BRANCH  21  27
ATOM     27  C   UNK A   0      34.832 -20.851 -21.050  0.00  0.00    -0.006 C 
BRANCH  27  28
ATOM     28  C   UNK A   0      33.996 -19.580 -20.835  0.00  0.00    +0.025 C 
BRANCH  28  29
ATOM     29  C   UNK A   0      34.374 -18.441 -21.747  0.00  0.00    -0.022 C 
ATOM     30  C   UNK A   0      34.722 -18.696 -23.074  0.00  0.00    -0.004 C 
ATOM     31  C   UNK A   0      34.377 -17.133 -21.264  0.00  0.00    -0.004 C 
ATOM     32  C   UNK A   0      35.072 -17.642 -23.917  0.00  0.00    -0.000 C 
ATOM     33  C   UNK A   0      34.726 -16.079 -22.108  0.00  0.00    -0.000 C 
ATOM     34  C   UNK A   0      35.074 -16.333 -23.435  0.00  0.00    -0.000 C 
ENDBRANCH  28  29
ENDBRANCH  27  28
ENDBRANCH  21  27
ENDBRANCH   1  21
TORSDOF 11
ENDMDL
MODEL 5
REMARK VINA RESULT:      -8.1     16.520     20.786
REMARK  Name = 5311447
REMARK  11 active torsions:
REMARK  status: ('A' for Active; 'I' for Inactive)
REMARK    1  A    between atoms: N_1  and  C_4
REMARK    2  A    between atoms: N_1  and  C_21
REMARK    3  A    between atoms: C_4  and  C_14
REMARK    4  A    between atoms: C_12  and  C_18
REMARK    5  A    between atoms: C_18  and  O_19
REMARK    6  A    between atoms: C_21  and  C_23
REMARK    7  A    between atoms: C_21  and  C_27
REMARK    8  A    between atoms: C_23  and  O_24
REMARK    9  A    between atoms: O_24  and  C_25
REMARK   10  A    between atoms: C_27  and  C_28
REMARK   11  A    between atoms: C_28  and  C_29
REMARK                            x       y       z     vdW  Elec       q    Type
REMARK                         _______ _______ _______ _____ _____    ______ ____
ROOT
ATOM      1  N   UNK A   1      32.319  -6.116 -22.400  0.00  0.00    +0.399 N 
ATOM      2  H   UNK A   1      31.504  -5.928 -21.817  0.00  0.00    -0.083 HD
ATOM      3  H   UNK A   1      33.080  -5.478 -22.169  0.00  0.00    -0.083 HD
ENDROOT
BRANCH   1   4
ATOM      4  C   UNK A   1      31.962  -5.924 -23.795  0.00  0.00    +0.018 C 
ATOM      5  C   UNK A   1      30.854  -6.870 -24.209  0.00  0.00    -0.014 C 
BRANCH   4  14
ATOM      6  S   UNK A   1      32.027  -3.357 -28.389  0.00  0.00    -0.129 S 
ATOM      7  S   UNK A   1      34.913  -3.204 -27.651  0.00  0.00    -0.129 S 
ATOM      8  O   UNK A   1      30.692  -4.022 -23.134  0.00  0.00    -0.277 OA
ATOM      9  N   UNK A   1      32.033  -3.795 -25.008  0.00  0.00    -0.271 N 
ATOM     10  C   UNK A   1      33.213  -3.194 -26.990  0.00  0.00    +0.098 C 
ATOM     11  C   UNK A   1      32.938  -1.930 -26.157  0.00  0.00    +0.053 C 
ATOM     12  C   UNK A   1      31.853  -2.357 -25.164  0.00  0.00    +0.176 C 
ATOM     13  C   UNK A   1      32.996  -4.324 -25.979  0.00  0.00    +0.114 C 
ATOM     14  C   UNK A   1      31.500  -4.495 -23.936  0.00  0.00    +0.206 C 
ATOM     15  C   UNK A   1      33.236  -3.257 -29.734  0.00  0.00    +0.070 C 
ATOM     16  C   UNK A   1      34.511  -3.921 -29.262  0.00  0.00    +0.070 C 
BRANCH  12  18
ATOM     17  O   UNK A   1      30.195  -1.866 -26.855  0.00  0.00    -0.248 OA
ATOM     18  C   UNK A   1      30.473  -2.086 -25.686  0.00  0.00    +0.332 C 
BRANCH  18  19
ATOM     19  O   UNK A   1      29.566  -2.115 -24.679  0.00  0.00    -0.479 OA
ATOM     20  H   UNK A   1      29.518  -2.859 -24.112  0.00  0.00    +0.295 HD
ENDBRANCH  18  19
ENDBRANCH  12  18
ENDBRANCH   4  14
ENDBRANCH   1   4
BRANCH   1  21
ATOM     21  C   UNK A   0      32.772  -7.482 -22.158  0.00  0.00    +0.041 C 
BRANCH  21  23
ATOM     22  O   UNK A   0      32.623  -7.131 -19.746  0.00  0.00    -0.252 OA
ATOM     23  C   UNK A   0      32.412  -7.835 -20.724  0.00  0.00    +0.297 C 
BRANCH  23  24
ATOM     24  O   UNK A   0      31.807  -9.062 -20.704  0.00  0.00    -0.450 OA
BRANCH  24  25
ATOM     25  C   UNK A   0      31.900  -9.777 -19.468  0.00  0.00    +0.208 C 
ATOM     26  C   UNK A   0      31.398 -11.189 -19.676  0.00  0.00    +0.051 C 
ENDBRANCH  24  25
ENDBRANCH  23  24
ENDBRANCH  21  23
BRANCH  21  27
ATOM     27  C   UNK A   0      34.289  -7.621 -22.358  0.00  0.00    -0.006 C 
BRANCH  27  28
ATOM     28  C   UNK A   0      34.740  -7.870 -23.805  0.00  0.00    +0.025 C 
BRANCH  28  29
ATOM     29  C   UNK A   0      34.502  -9.281 -24.281  0.00  0.00    -0.022 C 
ATOM     30  C   UNK A   0      33.601 -10.104 -23.606  0.00  0.00    -0.004 C 
ATOM     31  C   UNK A   0      35.185  -9.764 -25.398  0.00  0.00    -0.004 C 
ATOM     32  C   UNK A   0      33.382 -11.408 -24.046  0.00  0.00    -0.000 C 
ATOM     33  C   UNK A   0      34.965 -11.069 -25.839  0.00  0.00    -0.000 C 
ATOM     34  C   UNK A   0      34.064 -11.891 -25.164  0.00  0.00    -0.000 C 
ENDBRANCH  28  29
ENDBRANCH  27  28
ENDBRANCH  21  27
ENDBRANCH   1  21
TORSDOF 11
ENDMDL
MODEL 6
REMARK VINA RESULT:      -7.9      9.886     13.795
REMARK  Name = 5311447
REMARK  11 active torsions:
REMARK  status: ('A' for Active; 'I' for Inactive)
REMARK    1  A    between atoms: N_1  and  C_4
REMARK    2  A    between atoms: N_1  and  C_21
REMARK    3  A    between atoms: C_4  and  C_14
REMARK    4  A    between atoms: C_12  and  C_18
REMARK    5  A    between atoms: C_18  and  O_19
REMARK    6  A    between atoms: C_21  and  C_23
REMARK    7  A    between atoms: C_21  and  C_27
REMARK    8  A    between atoms: C_23  and  O_24
REMARK    9  A    between atoms: O_24  and  C_25
REMARK   10  A    between atoms: C_27  and  C_28
REMARK   11  A    between atoms: C_28  and  C_29
REMARK                            x       y       z     vdW  Elec       q    Type
REMARK                         _______ _______ _______ _____ _____    ______ ____
ROOT
ATOM      1  N   UNK A   1      34.326 -13.025 -22.685  0.00  0.00    +0.399 N 
ATOM      2  H   UNK A   1      35.066 -13.086 -23.384  0.00  0.00    -0.083 HD
ATOM      3  H   UNK A   1      34.677 -12.595 -21.829  0.00  0.00    -0.083 HD
ENDROOT
BRANCH   1   4
ATOM      4  C   UNK A   1      33.857 -14.364 -22.370  0.00  0.00    +0.018 C 
ATOM      5  C   UNK A   1      32.366 -14.368 -22.099  0.00  0.00    -0.014 C 
BRANCH   4  14
ATOM      6  S   UNK A   1      33.952 -19.619 -22.125  0.00  0.00    -0.129 S 
ATOM      7  S   UNK A   1      36.589 -18.980 -20.887  0.00  0.00    -0.129 S 
ATOM      8  O   UNK A   1      33.967 -14.805 -24.707  0.00  0.00    -0.277 OA
ATOM      9  N   UNK A   1      34.663 -16.492 -23.281  0.00  0.00    -0.271 N 
ATOM     10  C   UNK A   1      35.387 -18.467 -22.160  0.00  0.00    +0.098 C 
ATOM     11  C   UNK A   1      36.033 -18.406 -23.555  0.00  0.00    +0.053 C 
ATOM     12  C   UNK A   1      35.203 -17.367 -24.313  0.00  0.00    +0.176 C 
ATOM     13  C   UNK A   1      34.914 -17.027 -21.939  0.00  0.00    +0.114 C 
ATOM     14  C   UNK A   1      34.166 -15.228 -23.566  0.00  0.00    +0.206 C 
ATOM     15  C   UNK A   1      34.621 -20.790 -20.916  0.00  0.00    +0.070 C 
ATOM     16  C   UNK A   1      35.454 -20.008 -19.925  0.00  0.00    +0.070 C 
BRANCH  12  18
ATOM     17  O   UNK A   1      33.675 -19.140 -24.922  0.00  0.00    -0.248 OA
ATOM     18  C   UNK A   1      34.070 -17.993 -25.072  0.00  0.00    +0.332 C 
BRANCH  18  19
ATOM     19  O   UNK A   1      33.540 -17.113 -25.956  0.00  0.00    -0.479 OA
ATOM     20  H   UNK A   1      33.788 -17.149 -26.859  0.00  0.00    +0.295 HD
ENDBRANCH  18  19
ENDBRANCH  12  18
ENDBRANCH   4  14
ENDBRANCH   1   4
BRANCH   1  21
ATOM     21  C   UNK A   0      33.244 -12.199 -23.208  0.00  0.00    +0.041 C 
BRANCH  21  23
ATOM     22  O   UNK A   0      33.721 -11.440 -25.479  0.00  0.00    -0.252 OA
ATOM     23  C   UNK A   0      33.836 -11.288 -24.271  0.00  0.00    +0.297 C 
BRANCH  23  24
ATOM     24  O   UNK A   0      34.512 -10.268 -23.659  0.00  0.00    -0.450 OA
BRANCH  24  25
ATOM     25  C   UNK A   0      34.824  -9.147 -24.492  0.00  0.00    +0.208 C 
ATOM     26  C   UNK A   0      34.847  -7.894 -23.645  0.00  0.00    +0.051 C 
ENDBRANCH  24  25
ENDBRANCH  23  24
ENDBRANCH  21  23
BRANCH  21  27
ATOM     27  C   UNK A   0      32.592 -11.350 -22.105  0.00  0.00    -0.006 C 
BRANCH  27  28
ATOM     28  C   UNK A   0      31.373 -10.526 -22.545  0.00  0.00    +0.025 C 
BRANCH  28  29
ATOM     29  C   UNK A   0      31.540  -9.040 -22.347  0.00  0.00    -0.022 C 
ATOM     30  C   UNK A   0      32.126  -8.553 -21.178  0.00  0.00    -0.004 C 
ATOM     31  C   UNK A   0      31.107  -8.152 -23.332  0.00  0.00    -0.004 C 
ATOM     32  C   UNK A   0      32.279  -7.180 -20.995  0.00  0.00    -0.000 C 
ATOM     33  C   UNK A   0      31.261  -6.778 -23.149  0.00  0.00    -0.000 C 
ATOM     34  C   UNK A   0      31.847  -6.292 -21.980  0.00  0.00    -0.000 C 
ENDBRANCH  28  29
ENDBRANCH  27  28
ENDBRANCH  21  27
ENDBRANCH   1  21
TORSDOF 11
ENDMDL
MODEL 7
REMARK VINA RESULT:      -7.9      9.450     13.175
REMARK  Name = 5311447
REMARK  11 active torsions:
REMARK  status: ('A' for Active; 'I' for Inactive)
REMARK    1  A    between atoms: N_1  and  C_4
REMARK    2  A    between atoms: N_1  and  C_21
REMARK    3  A    between atoms: C_4  and  C_14
REMARK    4  A    between atoms: C_12  and  C_18
REMARK    5  A    between atoms: C_18  and  O_19
REMARK    6  A    between atoms: C_21  and  C_23
REMARK    7  A    between atoms: C_21  and  C_27
REMARK    8  A    between atoms: C_23  and  O_24
REMARK    9  A    between atoms: O_24  and  C_25
REMARK   10  A    between atoms: C_27  and  C_28
REMARK   11  A    between atoms: C_28  and  C_29
REMARK                            x       y       z     vdW  Elec       q    Type
REMARK                         _______ _______ _______ _____ _____    ______ ____
ROOT
ATOM      1  N   UNK A   1      31.964 -13.597 -22.177  0.00  0.00    +0.399 N 
ATOM      2  H   UNK A   1      31.118 -13.811 -21.649  0.00  0.00    -0.083 HD
ATOM      3  H   UNK A   1      31.794 -13.695 -23.178  0.00  0.00    -0.083 HD
ENDROOT
BRANCH   1   4
ATOM      4  C   UNK A   1      33.013 -14.525 -21.793  0.00  0.00    +0.018 C 
ATOM      5  C   UNK A   1      32.462 -15.643 -20.931  0.00  0.00    -0.014 C 
BRANCH   4  14
ATOM      6  S   UNK A   1      34.156 -19.629 -22.373  0.00  0.00    -0.129 S 
ATOM      7  S   UNK A   1      36.501 -18.738 -20.760  0.00  0.00    -0.129 S 
ATOM      8  O   UNK A   1      33.395 -14.518 -24.143  0.00  0.00    -0.277 OA
ATOM      9  N   UNK A   1      34.305 -16.270 -22.932  0.00  0.00    -0.271 N 
ATOM     10  C   UNK A   1      35.324 -18.242 -22.063  0.00  0.00    +0.098 C 
ATOM     11  C   UNK A   1      36.053 -17.814 -23.349  0.00  0.00    +0.053 C 
ATOM     12  C   UNK A   1      35.092 -16.831 -24.022  0.00  0.00    +0.176 C 
ATOM     13  C   UNK A   1      34.552 -16.978 -21.672  0.00  0.00    +0.114 C 
ATOM     14  C   UNK A   1      33.586 -15.091 -23.068  0.00  0.00    +0.206 C 
ATOM     15  C   UNK A   1      34.951 -20.850 -21.297  0.00  0.00    +0.070 C 
ATOM     16  C   UNK A   1      35.526 -20.114 -20.107  0.00  0.00    +0.070 C 
BRANCH  12  18
ATOM     17  O   UNK A   1      33.943 -18.714 -25.015  0.00  0.00    -0.248 OA
ATOM     18  C   UNK A   1      34.174 -17.514 -24.993  0.00  0.00    +0.332 C 
BRANCH  18  19
ATOM     19  O   UNK A   1      33.631 -16.617 -25.852  0.00  0.00    -0.479 OA
ATOM     20  H   UNK A   1      33.443 -15.746 -25.563  0.00  0.00    +0.295 HD
ENDBRANCH  18  19
ENDBRANCH  12  18
ENDBRANCH   4  14
ENDBRANCH   1   4
BRANCH   1  21
ATOM     21  C   UNK A   0      32.358 -12.219 -21.908  0.00  0.00    +0.041 C 
BRANCH  21  23
ATOM     22  O   UNK A   0      30.175 -11.500 -21.082  0.00  0.00    -0.252 OA
ATOM     23  C   UNK A   0      31.375 -11.651 -20.897  0.00  0.00    +0.297 C 
BRANCH  23  24
ATOM     24  O   UNK A   0      32.045 -11.344 -19.745  0.00  0.00    -0.450 OA
BRANCH  24  25
ATOM     25  C   UNK A   0      31.739 -10.068 -19.173  0.00  0.00    +0.208 C 
ATOM     26  C   UNK A   0      32.286  -8.980 -20.071  0.00  0.00    +0.051 C 
ENDBRANCH  24  25
ENDBRANCH  23  24
ENDBRANCH  21  23
BRANCH  21  27
ATOM     27  C   UNK A   0      32.338 -11.362 -23.184  0.00  0.00    -0.006 C 
BRANCH  27  28
ATOM     28  C   UNK A   0      33.673 -10.694 -23.546  0.00  0.00    +0.025 C 
BRANCH  28  29
ATOM     29  C   UNK A   0      33.571  -9.203 -23.749  0.00  0.00    -0.022 C 
ATOM     30  C   UNK A   0      34.724  -8.446 -23.956  0.00  0.00    -0.004 C 
ATOM     31  C   UNK A   0      32.322  -8.581 -23.730  0.00  0.00    -0.004 C 
ATOM     32  C   UNK A   0      34.629  -7.068 -24.143  0.00  0.00    -0.000 C 
ATOM     33  C   UNK A   0      32.227  -7.202 -23.918  0.00  0.00    -0.000 C 
ATOM     34  C   UNK A   0      33.380  -6.445 -24.125  0.00  0.00    -0.000 C 
ENDBRANCH  28  29
ENDBRANCH  27  28
ENDBRANCH  21  27
ENDBRANCH   1  21
TORSDOF 11
ENDMDL
MODEL 8
REMARK VINA RESULT:      -7.8     11.634     15.808
REMARK  Name = 5311447
REMARK  11 active torsions:
REMARK  status: ('A' for Active; 'I' for Inactive)
REMARK    1  A    between atoms: N_1  and  C_4
REMARK    2  A    between atoms: N_1  and  C_21
REMARK    3  A    between atoms: C_4  and  C_14
REMARK    4  A    between atoms: C_12  and  C_18
REMARK    5  A    between atoms: C_18  and  O_19
REMARK    6  A    between atoms: C_21  and  C_23
REMARK    7  A    between atoms: C_21  and  C_27
REMARK    8  A    between atoms: C_23  and  O_24
REMARK    9  A    between atoms: O_24  and  C_25
REMARK   10  A    between atoms: C_27  and  C_28
REMARK   11  A    between atoms: C_28  and  C_29
REMARK                            x       y       z     vdW  Elec       q    Type
REMARK                         _______ _______ _______ _____ _____    ______ ____
ROOT
ATOM      1  N   UNK A   1      31.651 -12.782 -21.603  0.00  0.00    +0.399 N 
ATOM      2  H   UNK A   1      30.924 -13.381 -21.995  0.00  0.00    -0.083 HD
ATOM      3  H   UNK A   1      31.586 -12.759 -20.586  0.00  0.00    -0.083 HD
ENDROOT
BRANCH   1   4
ATOM      4  C   UNK A   1      31.476 -11.430 -22.107  0.00  0.00    +0.018 C 
ATOM      5  C   UNK A   1      30.007 -11.095 -22.267  0.00  0.00    -0.014 C 
BRANCH   4  14
ATOM      6  S   UNK A   1      31.061  -6.194 -22.419  0.00  0.00    -0.129 S 
ATOM      7  S   UNK A   1      33.147  -6.688 -24.493  0.00  0.00    -0.129 S 
ATOM      8  O   UNK A   1      32.354 -10.897 -19.960  0.00  0.00    -0.277 OA
ATOM      9  N   UNK A   1      32.375  -9.218 -21.555  0.00  0.00    -0.271 N 
ATOM     10  C   UNK A   1      32.505  -7.238 -22.876  0.00  0.00    +0.098 C 
ATOM     11  C   UNK A   1      33.598  -7.202 -21.793  0.00  0.00    +0.053 C 
ATOM     12  C   UNK A   1      33.168  -8.270 -20.783  0.00  0.00    +0.176 C 
ATOM     13  C   UNK A   1      32.102  -8.716 -22.905  0.00  0.00    +0.114 C 
ATOM     14  C   UNK A   1      32.111 -10.503 -21.102  0.00  0.00    +0.206 C 
ATOM     15  C   UNK A   1      31.173  -5.023 -23.796  0.00  0.00    +0.070 C 
ATOM     16  C   UNK A   1      31.671  -5.779 -25.008  0.00  0.00    +0.070 C 
BRANCH  12  18
ATOM     17  O   UNK A   1      31.314  -8.220 -19.231  0.00  0.00    -0.248 OA
ATOM     18  C   UNK A   1      32.322  -7.698 -19.683  0.00  0.00    +0.332 C 
BRANCH  18  19
ATOM     19  O   UNK A   1      32.826  -6.515 -19.256  0.00  0.00    -0.479 OA
ATOM     20  H   UNK A   1      33.615  -6.496 -18.751  0.00  0.00    +0.295 HD
ENDBRANCH  18  19
ENDBRANCH  12  18
ENDBRANCH   4  14
ENDBRANCH   1   4
BRANCH   1  21
ATOM     21  C   UNK A   0      32.957 -13.315 -21.972  0.00  0.00    +0.041 C 
BRANCH  21  23
ATOM     22  O   UNK A   0      32.397 -13.795 -24.299  0.00  0.00    -0.252 OA
ATOM     23  C   UNK A   0      33.088 -13.202 -23.482  0.00  0.00    +0.297 C 
BRANCH  23  24
ATOM     24  O   UNK A   0      34.096 -12.327 -23.779  0.00  0.00    -0.450 OA
BRANCH  24  25
ATOM     25  C   UNK A   0      33.982 -11.659 -25.040  0.00  0.00    +0.208 C 
ATOM     26  C   UNK A   0      34.757 -10.360 -24.982  0.00  0.00    +0.051 C 
ENDBRANCH  24  25
ENDBRANCH  23  24
ENDBRANCH  21  23
BRANCH  21  27
ATOM     27  C   UNK A   0      33.111 -14.785 -21.549  0.00  0.00    -0.006 C 
BRANCH  27  28
ATOM     28  C   UNK A   0      34.543 -15.338 -21.610  0.00  0.00    +0.025 C 
BRANCH  28  29
ATOM     29  C   UNK A   0      34.667 -16.615 -22.403  0.00  0.00    -0.022 C 
ATOM     30  C   UNK A   0      34.795 -16.565 -23.791  0.00  0.00    -0.004 C 
ATOM     31  C   UNK A   0      34.654 -17.846 -21.747  0.00  0.00    -0.004 C 
ATOM     32  C   UNK A   0      34.910 -17.745 -24.524  0.00  0.00    -0.000 C 
ATOM     33  C   UNK A   0      34.770 -19.027 -22.480  0.00  0.00    -0.000 C 
ATOM     34  C   UNK A   0      34.898 -18.978 -23.869  0.00  0.00    -0.000 C 
ENDBRANCH  28  29
ENDBRANCH  27  28
ENDBRANCH  21  27
ENDBRANCH   1  21
TORSDOF 11
ENDMDL
MODEL 9
REMARK VINA RESULT:      -7.7      8.742     12.395
REMARK  Name = 5311447
REMARK  11 active torsions:
REMARK  status: ('A' for Active; 'I' for Inactive)
REMARK    1  A    between atoms: N_1  and  C_4
REMARK    2  A    between atoms: N_1  and  C_21
REMARK    3  A    between atoms: C_4  and  C_14
REMARK    4  A    between atoms: C_12  and  C_18
REMARK    5  A    between atoms: C_18  and  O_19
REMARK    6  A    between atoms: C_21  and  C_23
REMARK    7  A    between atoms: C_21  and  C_27
REMARK    8  A    between atoms: C_23  and  O_24
REMARK    9  A    between atoms: O_24  and  C_25
REMARK   10  A    between atoms: C_27  and  C_28
REMARK   11  A    between atoms: C_28  and  C_29
REMARK                            x       y       z     vdW  Elec       q    Type
REMARK                         _______ _______ _______ _____ _____    ______ ____
ROOT
ATOM      1  N   UNK A   1      33.863 -13.923 -21.309  0.00  0.00    +0.399 N 
ATOM      2  H   UNK A   1      34.507 -13.710 -22.071  0.00  0.00    -0.083 HD
ATOM      3  H   UNK A   1      34.167 -13.472 -20.446  0.00  0.00    -0.083 HD
ENDROOT
BRANCH   1   4
ATOM      4  C   UNK A   1      33.839 -15.360 -21.094  0.00  0.00    +0.018 C 
ATOM      5  C   UNK A   1      32.426 -15.851 -20.855  0.00  0.00    -0.014 C 
BRANCH   4  14
ATOM      6  S   UNK A   1      34.799 -20.522 -21.454  0.00  0.00    -0.129 S 
ATOM      7  S   UNK A   1      37.161 -19.650 -19.853  0.00  0.00    -0.129 S 
ATOM      8  O   UNK A   1      34.243 -15.463 -23.438  0.00  0.00    -0.277 OA
ATOM      9  N   UNK A   1      35.077 -17.196 -22.147  0.00  0.00    -0.271 N 
ATOM     10  C   UNK A   1      36.015 -19.166 -21.188  0.00  0.00    +0.098 C 
ATOM     11  C   UNK A   1      36.771 -18.818 -22.482  0.00  0.00    +0.053 C 
ATOM     12  C   UNK A   1      35.853 -17.829 -23.205  0.00  0.00    +0.176 C 
ATOM     13  C   UNK A   1      35.286 -17.860 -20.857  0.00  0.00    +0.114 C 
ATOM     14  C   UNK A   1      34.403 -15.998 -22.339  0.00  0.00    +0.206 C 
ATOM     15  C   UNK A   1      35.539 -21.725 -20.320  0.00  0.00    +0.070 C 
ATOM     16  C   UNK A   1      36.130 -20.962 -19.155  0.00  0.00    +0.070 C 
BRANCH  12  18
ATOM     17  O   UNK A   1      34.674 -19.715 -24.157  0.00  0.00    -0.248 OA
ATOM     18  C   UNK A   1      34.919 -18.518 -24.157  0.00  0.00    +0.332 C 
BRANCH  18  19
ATOM     19  O   UNK A   1      34.382 -17.630 -25.029  0.00  0.00    -0.479 OA
ATOM     20  H   UNK A   1      33.699 -17.899 -25.612  0.00  0.00    +0.295 HD
ENDBRANCH  18  19
ENDBRANCH  12  18
ENDBRANCH   4  14
ENDBRANCH   1   4
BRANCH   1  21
ATOM     21  C   UNK A   0      32.537 -13.422 -21.651  0.00  0.00    +0.041 C 
BRANCH  21  23
ATOM     22  O   UNK A   0      31.847 -13.228 -23.985  0.00  0.00    -0.252 OA
ATOM     23  C   UNK A   0      32.599 -12.901 -23.078  0.00  0.00    +0.297 C 
BRANCH  23  24
ATOM     24  O   UNK A   0      33.625 -12.002 -23.181  0.00  0.00    -0.450 OA
BRANCH  24  25
ATOM     25  C   UNK A   0      33.800 -11.411 -24.473  0.00  0.00    +0.208 C 
ATOM     26  C   UNK A   0      34.596 -10.132 -24.326  0.00  0.00    +0.051 C 
ENDBRANCH  24  25
ENDBRANCH  23  24
ENDBRANCH  21  23
BRANCH  21  27
ATOM     27  C   UNK A   0      32.097 -12.291 -20.708  0.00  0.00    -0.006 C 
BRANCH  27  28
ATOM     28  C   UNK A   0      31.062 -11.316 -21.290  0.00  0.00    +0.025 C 
BRANCH  28  29
ATOM     29  C   UNK A   0      31.550  -9.892 -21.377  0.00  0.00    -0.022 C 
ATOM     30  C   UNK A   0      32.084  -9.267 -20.251  0.00  0.00    -0.004 C 
ATOM     31  C   UNK A   0      31.466  -9.200 -22.586  0.00  0.00    -0.004 C 
ATOM     32  C   UNK A   0      32.534  -7.950 -20.331  0.00  0.00    -0.000 C 
ATOM     33  C   UNK A   0      31.918  -7.882 -22.666  0.00  0.00    -0.000 C 
ATOM     34  C   UNK A   0      32.452  -7.257 -21.540  0.00  0.00    -0.000 C 
ENDBRANCH  28  29
ENDBRANCH  27  28
ENDBRANCH  21  27
ENDBRANCH   1  21
TORSDOF 11
ENDMDL
