MODEL 1
REMARK VINA RESULT:      -7.5      0.000      0.000
REMARK  Name = 17753867
REMARK  5 active torsions:
REMARK  status: ('A' for Active; 'I' for Inactive)
REMARK    1  A    between atoms: C_1  and  C_3
REMARK    2  A    between atoms: C_1  and  C_5
REMARK    3  A    between atoms: C_1  and  C_8
REMARK    4  A    between atoms: C_5  and  O_6
REMARK    5  A    between atoms: C_8  and  C_9
REMARK                            x       y       z     vdW  Elec       q    Type
REMARK                         _______ _______ _______ _____ _____    ______ ____
ROOT
ATOM      1  C   UNL     1      34.692 -17.556 -22.024  0.00  0.00    +0.114 C 
ENDROOT
BRANCH   1   3
ATOM      2  I   UNL     1      32.977 -15.220 -20.991  0.00  0.00    -0.074 I 
ATOM      3  C   UNL     1      34.834 -16.312 -21.127  0.00  0.00    +0.074 C 
ENDBRANCH   1   3
BRANCH   1   5
ATOM      4  O   UNL     1      34.586 -17.865 -24.445  0.00  0.00    -0.250 OA
ATOM      5  C   UNL     1      34.969 -17.211 -23.483  0.00  0.00    +0.314 C 
BRANCH   5   6
ATOM      6  O   UNL     1      35.676 -16.057 -23.611  0.00  0.00    -0.480 OA
ATOM      7  H   UNL     1      35.661 -15.586 -24.421  0.00  0.00    +0.295 HD
ENDBRANCH   5   6
ENDBRANCH   1   5
BRANCH   1   8
ATOM      8  C   UNL     1      35.680 -18.669 -21.619  0.00  0.00    +0.038 C 
BRANCH   8   9
ATOM      9  C   UNL     1      35.050 -19.777 -20.811  0.00  0.00    -0.022 C 
ATOM     10  C   UNL     1      33.662 -19.860 -20.704  0.00  0.00    -0.004 C 
ATOM     11  C   UNL     1      35.856 -20.718 -20.172  0.00  0.00    -0.004 C 
ATOM     12  C   UNL     1      33.080 -20.884 -19.956  0.00  0.00    -0.000 C 
ATOM     13  C   UNL     1      35.275 -21.742 -19.424  0.00  0.00    -0.000 C 
ATOM     14  C   UNL     1      33.886 -21.825 -19.317  0.00  0.00    -0.000 C 
ENDBRANCH   8   9
ENDBRANCH   1   8
TORSDOF 5
ENDMDL
MODEL 2
REMARK VINA RESULT:      -7.5      0.006      1.340
REMARK  Name = 17753867
REMARK  5 active torsions:
REMARK  status: ('A' for Active; 'I' for Inactive)
REMARK    1  A    between atoms: C_1  and  C_3
REMARK    2  A    between atoms: C_1  and  C_5
REMARK    3  A    between atoms: C_1  and  C_8
REMARK    4  A    between atoms: C_5  and  O_6
REMARK    5  A    between atoms: C_8  and  C_9
REMARK                            x       y       z     vdW  Elec       q    Type
REMARK                         _______ _______ _______ _____ _____    ______ ____
ROOT
ATOM      1  C   UNL     1      34.692 -17.557 -22.019  0.00  0.00    +0.114 C 
ENDROOT
BRANCH   1   3
ATOM      2  I   UNL     1      32.977 -15.219 -20.990  0.00  0.00    -0.074 I 
ATOM      3  C   UNL     1      34.834 -16.312 -21.124  0.00  0.00    +0.074 C 
ENDBRANCH   1   3
BRANCH   1   5
ATOM      4  O   UNL     1      34.577 -17.865 -24.440  0.00  0.00    -0.250 OA
ATOM      5  C   UNL     1      34.967 -17.214 -23.479  0.00  0.00    +0.314 C 
BRANCH   5   6
ATOM      6  O   UNL     1      35.681 -16.065 -23.610  0.00  0.00    -0.480 OA
ATOM      7  H   UNL     1      36.423 -16.037 -24.181  0.00  0.00    +0.295 HD
ENDBRANCH   5   6
ENDBRANCH   1   5
BRANCH   1   8
ATOM      8  C   UNL     1      35.681 -18.668 -21.614  0.00  0.00    +0.038 C 
BRANCH   8   9
ATOM      9  C   UNL     1      35.053 -19.778 -20.806  0.00  0.00    -0.022 C 
ATOM     10  C   UNL     1      35.860 -20.718 -20.167  0.00  0.00    -0.004 C 
ATOM     11  C   UNL     1      33.665 -19.862 -20.699  0.00  0.00    -0.004 C 
ATOM     12  C   UNL     1      35.279 -21.744 -19.421  0.00  0.00    -0.000 C 
ATOM     13  C   UNL     1      33.084 -20.888 -19.954  0.00  0.00    -0.000 C 
ATOM     14  C   UNL     1      33.892 -21.829 -19.313  0.00  0.00    -0.000 C 
ENDBRANCH   8   9
ENDBRANCH   1   8
TORSDOF 5
ENDMDL
MODEL 3
REMARK VINA RESULT:      -7.2      2.125      2.801
REMARK  Name = 17753867
REMARK  5 active torsions:
REMARK  status: ('A' for Active; 'I' for Inactive)
REMARK    1  A    between atoms: C_1  and  C_3
REMARK    2  A    between atoms: C_1  and  C_5
REMARK    3  A    between atoms: C_1  and  C_8
REMARK    4  A    between atoms: C_5  and  O_6
REMARK    5  A    between atoms: C_8  and  C_9
REMARK                            x       y       z     vdW  Elec       q    Type
REMARK                         _______ _______ _______ _____ _____    ______ ____
ROOT
ATOM      1  C   UNL     1      35.007 -17.522 -21.417  0.00  0.00    +0.114 C 
ENDROOT
BRANCH   1   3
ATOM      2  I   UNL     1      34.681 -18.494 -24.318  0.00  0.00    -0.074 I 
ATOM      3  C   UNL     1      35.586 -17.235 -22.815  0.00  0.00    +0.074 C 
ENDBRANCH   1   3
BRANCH   1   5
ATOM      4  O   UNL     1      34.966 -15.457 -20.113  0.00  0.00    -0.250 OA
ATOM      5  C   UNL     1      34.380 -16.269 -20.818  0.00  0.00    +0.314 C 
BRANCH   5   6
ATOM      6  O   UNL     1      33.078 -16.123 -21.182  0.00  0.00    -0.480 OA
ATOM      7  H   UNL     1      32.821 -15.404 -21.724  0.00  0.00    +0.295 HD
ENDBRANCH   5   6
ENDBRANCH   1   5
BRANCH   1   8
ATOM      8  C   UNL     1      33.913 -18.608 -21.462  0.00  0.00    +0.038 C 
BRANCH   8   9
ATOM      9  C   UNL     1      34.243 -19.839 -20.654  0.00  0.00    -0.022 C 
ATOM     10  C   UNL     1      35.571 -20.234 -20.496  0.00  0.00    -0.004 C 
ATOM     11  C   UNL     1      33.219 -20.581 -20.066  0.00  0.00    -0.004 C 
ATOM     12  C   UNL     1      35.875 -21.373 -19.749  0.00  0.00    -0.000 C 
ATOM     13  C   UNL     1      33.523 -21.719 -19.319  0.00  0.00    -0.000 C 
ATOM     14  C   UNL     1      34.852 -22.114 -19.160  0.00  0.00    -0.000 C 
ENDBRANCH   8   9
ENDBRANCH   1   8
TORSDOF 5
ENDMDL
MODEL 4
REMARK VINA RESULT:      -6.7      2.420      3.695
REMARK  Name = 17753867
REMARK  5 active torsions:
REMARK  status: ('A' for Active; 'I' for Inactive)
REMARK    1  A    between atoms: C_1  and  C_3
REMARK    2  A    between atoms: C_1  and  C_5
REMARK    3  A    between atoms: C_1  and  C_8
REMARK    4  A    between atoms: C_5  and  O_6
REMARK    5  A    between atoms: C_8  and  C_9
REMARK                            x       y       z     vdW  Elec       q    Type
REMARK                         _______ _______ _______ _____ _____    ______ ____
ROOT
ATOM      1  C   UNL     1      33.400 -15.106 -24.083  0.00  0.00    +0.114 C 
ENDROOT
BRANCH   1   3
ATOM      2  I   UNL     1      32.596 -13.856 -21.390  0.00  0.00    -0.074 I 
ATOM      3  C   UNL     1      33.092 -13.720 -23.486  0.00  0.00    +0.074 C 
ENDBRANCH   1   3
BRANCH   1   5
ATOM      4  O   UNL     1      33.985 -15.731 -26.371  0.00  0.00    -0.250 OA
ATOM      5  C   UNL     1      33.285 -15.083 -25.603  0.00  0.00    +0.314 C 
BRANCH   5   6
ATOM      6  O   UNL     1      32.280 -14.274 -26.029  0.00  0.00    -0.480 OA
ATOM      7  H   UNL     1      32.445 -13.367 -26.189  0.00  0.00    +0.295 HD
ENDBRANCH   5   6
ENDBRANCH   1   5
BRANCH   1   8
ATOM      8  C   UNL     1      34.828 -15.573 -23.737  0.00  0.00    +0.038 C 
BRANCH   8   9
ATOM      9  C   UNL     1      34.885 -16.943 -23.105  0.00  0.00    -0.022 C 
ATOM     10  C   UNL     1      34.980 -17.068 -21.720  0.00  0.00    -0.004 C 
ATOM     11  C   UNL     1      34.842 -18.082 -23.907  0.00  0.00    -0.004 C 
ATOM     12  C   UNL     1      35.034 -18.334 -21.136  0.00  0.00    -0.000 C 
ATOM     13  C   UNL     1      34.894 -19.348 -23.324  0.00  0.00    -0.000 C 
ATOM     14  C   UNL     1      34.990 -19.474 -21.937  0.00  0.00    -0.000 C 
ENDBRANCH   8   9
ENDBRANCH   1   8
TORSDOF 5
ENDMDL
MODEL 5
REMARK VINA RESULT:      -6.6      5.382      6.993
REMARK  Name = 17753867
REMARK  5 active torsions:
REMARK  status: ('A' for Active; 'I' for Inactive)
REMARK    1  A    between atoms: C_1  and  C_3
REMARK    2  A    between atoms: C_1  and  C_5
REMARK    3  A    between atoms: C_1  and  C_8
REMARK    4  A    between atoms: C_5  and  O_6
REMARK    5  A    between atoms: C_8  and  C_9
REMARK                            x       y       z     vdW  Elec       q    Type
REMARK                         _______ _______ _______ _____ _____    ______ ____
ROOT
ATOM      1  C   UNL     1      33.415 -22.916 -16.825  0.00  0.00    +0.114 C 
ENDROOT
BRANCH   1   3
ATOM      2  I   UNL     1      31.572 -23.162 -14.375  0.00  0.00    -0.074 I 
ATOM      3  C   UNL     1      32.054 -23.529 -16.447  0.00  0.00    +0.074 C 
ENDBRANCH   1   3
BRANCH   1   5
ATOM      4  O   UNL     1      34.959 -24.570 -15.902  0.00  0.00    -0.250 OA
ATOM      5  C   UNL     1      34.518 -23.427 -15.905  0.00  0.00    +0.314 C 
BRANCH   5   6
ATOM      6  O   UNL     1      34.996 -22.452 -15.087  0.00  0.00    -0.480 OA
ATOM      7  H   UNL     1      34.758 -21.558 -15.235  0.00  0.00    +0.295 HD
ENDBRANCH   5   6
ENDBRANCH   1   5
BRANCH   1   8
ATOM      8  C   UNL     1      33.821 -23.272 -18.269  0.00  0.00    +0.038 C 
BRANCH   8   9
ATOM      9  C   UNL     1      34.111 -22.070 -19.134  0.00  0.00    -0.022 C 
ATOM     10  C   UNL     1      33.063 -21.272 -19.593  0.00  0.00    -0.004 C 
ATOM     11  C   UNL     1      35.426 -21.756 -19.474  0.00  0.00    -0.004 C 
ATOM     12  C   UNL     1      33.331 -20.161 -20.394  0.00  0.00    -0.000 C 
ATOM     13  C   UNL     1      35.694 -20.646 -20.274  0.00  0.00    -0.000 C 
ATOM     14  C   UNL     1      34.646 -19.847 -20.733  0.00  0.00    -0.000 C 
ENDBRANCH   8   9
ENDBRANCH   1   8
TORSDOF 5
ENDMDL
MODEL 6
REMARK VINA RESULT:      -6.6      3.332      4.499
REMARK  Name = 17753867
REMARK  5 active torsions:
REMARK  status: ('A' for Active; 'I' for Inactive)
REMARK    1  A    between atoms: C_1  and  C_3
REMARK    2  A    between atoms: C_1  and  C_5
REMARK    3  A    between atoms: C_1  and  C_8
REMARK    4  A    between atoms: C_5  and  O_6
REMARK    5  A    between atoms: C_8  and  C_9
REMARK                            x       y       z     vdW  Elec       q    Type
REMARK                         _______ _______ _______ _____ _____    ______ ____
ROOT
ATOM      1  C   UNL     1      33.262 -14.282 -23.637  0.00  0.00    +0.114 C 
ENDROOT
BRANCH   1   3
ATOM      2  I   UNL     1      32.802 -14.861 -20.651  0.00  0.00    -0.074 I 
ATOM      3  C   UNL     1      32.471 -13.709 -22.446  0.00  0.00    +0.074 C 
ENDBRANCH   1   3
BRANCH   1   5
ATOM      4  O   UNL     1      33.332 -13.222 -25.837  0.00  0.00    -0.250 OA
ATOM      5  C   UNL     1      33.603 -13.189 -24.642  0.00  0.00    +0.314 C 
BRANCH   5   6
ATOM      6  O   UNL     1      34.226 -12.132 -24.058  0.00  0.00    -0.480 OA
ATOM      7  H   UNL     1      35.013 -11.788 -24.431  0.00  0.00    +0.295 HD
ENDBRANCH   5   6
ENDBRANCH   1   5
BRANCH   1   8
ATOM      8  C   UNL     1      34.590 -14.923 -23.186  0.00  0.00    +0.038 C 
BRANCH   8   9
ATOM      9  C   UNL     1      34.712 -16.385 -23.541  0.00  0.00    -0.022 C 
ATOM     10  C   UNL     1      34.283 -16.838 -24.788  0.00  0.00    -0.004 C 
ATOM     11  C   UNL     1      35.253 -17.282 -22.621  0.00  0.00    -0.004 C 
ATOM     12  C   UNL     1      34.395 -18.190 -25.114  0.00  0.00    -0.000 C 
ATOM     13  C   UNL     1      35.365 -18.633 -22.947  0.00  0.00    -0.000 C 
ATOM     14  C   UNL     1      34.937 -19.087 -24.195  0.00  0.00    -0.000 C 
ENDBRANCH   8   9
ENDBRANCH   1   8
TORSDOF 5
ENDMDL
MODEL 7
REMARK VINA RESULT:      -6.4      2.853      5.232
REMARK  Name = 17753867
REMARK  5 active torsions:
REMARK  status: ('A' for Active; 'I' for Inactive)
REMARK    1  A    between atoms: C_1  and  C_3
REMARK    2  A    between atoms: C_1  and  C_5
REMARK    3  A    between atoms: C_1  and  C_8
REMARK    4  A    between atoms: C_5  and  O_6
REMARK    5  A    between atoms: C_8  and  C_9
REMARK                            x       y       z     vdW  Elec       q    Type
REMARK                         _______ _______ _______ _____ _____    ______ ____
ROOT
ATOM      1  C   UNL     1      35.081 -18.183 -21.461  0.00  0.00    +0.114 C 
ENDROOT
BRANCH   1   3
ATOM      2  I   UNL     1      33.119 -20.314 -20.425  0.00  0.00    -0.074 I 
ATOM      3  C   UNL     1      34.123 -19.254 -22.015  0.00  0.00    +0.074 C 
ENDBRANCH   1   3
BRANCH   1   5
ATOM      4  O   UNL     1      36.817 -19.427 -20.275  0.00  0.00    -0.250 OA
ATOM      5  C   UNL     1      36.475 -18.758 -21.243  0.00  0.00    +0.314 C 
BRANCH   5   6
ATOM      6  O   UNL     1      37.314 -18.474 -22.273  0.00  0.00    -0.480 OA
ATOM      7  H   UNL     1      37.216 -18.917 -23.093  0.00  0.00    +0.295 HD
ENDBRANCH   5   6
ENDBRANCH   1   5
BRANCH   1   8
ATOM      8  C   UNL     1      35.222 -16.988 -22.425  0.00  0.00    +0.038 C 
BRANCH   8   9
ATOM      9  C   UNL     1      34.241 -15.872 -22.160  0.00  0.00    -0.022 C 
ATOM     10  C   UNL     1      33.794 -15.630 -20.862  0.00  0.00    -0.004 C 
ATOM     11  C   UNL     1      33.781 -15.084 -23.214  0.00  0.00    -0.004 C 
ATOM     12  C   UNL     1      32.886 -14.599 -20.617  0.00  0.00    -0.000 C 
ATOM     13  C   UNL     1      32.873 -14.054 -22.970  0.00  0.00    -0.000 C 
ATOM     14  C   UNL     1      32.426 -13.811 -21.671  0.00  0.00    -0.000 C 
ENDBRANCH   8   9
ENDBRANCH   1   8
TORSDOF 5
ENDMDL
MODEL 8
REMARK VINA RESULT:      -6.4      9.381     10.943
REMARK  Name = 17753867
REMARK  5 active torsions:
REMARK  status: ('A' for Active; 'I' for Inactive)
REMARK    1  A    between atoms: C_1  and  C_3
REMARK    2  A    between atoms: C_1  and  C_5
REMARK    3  A    between atoms: C_1  and  C_8
REMARK    4  A    between atoms: C_5  and  O_6
REMARK    5  A    between atoms: C_8  and  C_9
REMARK                            x       y       z     vdW  Elec       q    Type
REMARK                         _______ _______ _______ _____ _____    ______ ____
ROOT
ATOM      1  C   UNL     1      32.445  -7.676 -21.590  0.00  0.00    +0.114 C 
ENDROOT
BRANCH   1   3
ATOM      2  I   UNL     1      31.559  -5.718 -23.791  0.00  0.00    -0.074 I 
ATOM      3  C   UNL     1      31.421  -6.545 -21.801  0.00  0.00    +0.074 C 
ENDBRANCH   1   3
BRANCH   1   5
ATOM      4  O   UNL     1      32.296  -9.064 -19.584  0.00  0.00    -0.250 OA
ATOM      5  C   UNL     1      32.602  -8.000 -20.108  0.00  0.00    +0.314 C 
BRANCH   5   6
ATOM      6  O   UNL     1      33.158  -6.972 -19.415  0.00  0.00    -0.480 OA
ATOM      7  H   UNL     1      32.849  -6.097 -19.545  0.00  0.00    +0.295 HD
ENDBRANCH   5   6
ENDBRANCH   1   5
BRANCH   1   8
ATOM      8  C   UNL     1      32.017  -8.975 -22.301  0.00  0.00    +0.038 C 
BRANCH   8   9
ATOM      9  C   UNL     1      33.054  -9.519 -23.253  0.00  0.00    -0.022 C 
ATOM     10  C   UNL     1      32.955 -10.830 -23.718  0.00  0.00    -0.004 C 
ATOM     11  C   UNL     1      34.111  -8.710 -23.667  0.00  0.00    -0.004 C 
ATOM     12  C   UNL     1      33.915 -11.332 -24.597  0.00  0.00    -0.000 C 
ATOM     13  C   UNL     1      35.071  -9.212 -24.546  0.00  0.00    -0.000 C 
ATOM     14  C   UNL     1      34.972 -10.524 -25.012  0.00  0.00    -0.000 C 
ENDBRANCH   8   9
ENDBRANCH   1   8
TORSDOF 5
ENDMDL
MODEL 9
REMARK VINA RESULT:      -6.4      7.901      9.059
REMARK  Name = 17753867
REMARK  5 active torsions:
REMARK  status: ('A' for Active; 'I' for Inactive)
REMARK    1  A    between atoms: C_1  and  C_3
REMARK    2  A    between atoms: C_1  and  C_5
REMARK    3  A    between atoms: C_1  and  C_8
REMARK    4  A    between atoms: C_5  and  O_6
REMARK    5  A    between atoms: C_8  and  C_9
REMARK                            x       y       z     vdW  Elec       q    Type
REMARK                         _______ _______ _______ _____ _____    ______ ____
ROOT
ATOM      1  C   UNL     1      35.880 -24.473 -15.293  0.00  0.00    +0.114 C 
ENDROOT
BRANCH   1   3
ATOM      2  I   UNL     1      37.119 -21.978 -16.599  0.00  0.00    -0.074 I 
ATOM      3  C   UNL     1      37.133 -23.586 -15.159  0.00  0.00    +0.074 C 
ENDBRANCH   1   3
BRANCH   1   5
ATOM      4  O   UNL     1      36.286 -26.817 -15.849  0.00  0.00    -0.250 OA
ATOM      5  C   UNL     1      36.212 -25.932 -15.005  0.00  0.00    +0.314 C 
BRANCH   5   6
ATOM      6  O   UNL     1      36.455 -26.152 -13.686  0.00  0.00    -0.480 OA
ATOM      7  H   UNL     1      36.596 -27.024 -13.374  0.00  0.00    +0.295 HD
ENDBRANCH   5   6
ENDBRANCH   1   5
BRANCH   1   8
ATOM      8  C   UNL     1      34.772 -24.050 -14.307  0.00  0.00    +0.038 C 
BRANCH   8   9
ATOM      9  C   UNL     1      33.485 -23.638 -14.979  0.00  0.00    -0.022 C 
ATOM     10  C   UNL     1      32.337 -23.425 -14.216  0.00  0.00    -0.004 C 
ATOM     11  C   UNL     1      33.443 -23.471 -16.363  0.00  0.00    -0.004 C 
ATOM     12  C   UNL     1      31.147 -23.045 -14.837  0.00  0.00    -0.000 C 
ATOM     13  C   UNL     1      32.254 -23.091 -16.984  0.00  0.00    -0.000 C 
ATOM     14  C   UNL     1      31.106 -22.877 -16.221  0.00  0.00    -0.000 C 
ENDBRANCH   8   9
ENDBRANCH   1   8
TORSDOF 5
ENDMDL
