MODEL 1
REMARK VINA RESULT:      -6.3      0.000      0.000
REMARK  Name = 4173
REMARK  4 active torsions:
REMARK  status: ('A' for Active; 'I' for Inactive)
REMARK    1  A    between atoms: N_1  and  C_10
REMARK    2  A    between atoms: C_4  and  N_9
REMARK    3  A    between atoms: C_10  and  C_11
REMARK    4  A    between atoms: C_11  and  O_12
REMARK                            x       y       z     vdW  Elec       q    Type
REMARK                         _______ _______ _______ _____ _____    ______ ____
ROOT
ATOM      1  N   UNL     1      37.493 -25.421 -13.011  0.00  0.00    -0.253 N 
ATOM      2  N   UNL     1      38.984 -23.901 -12.377  0.00  0.00    -0.230 NA
ATOM      3  C   UNL     1      38.774 -24.957 -13.130  0.00  0.00    +0.114 C 
ATOM      4  C   UNL     1      36.844 -24.606 -12.126  0.00  0.00    +0.218 C 
ATOM      5  C   UNL     1      37.785 -23.676 -11.749  0.00  0.00    +0.140 C 
ATOM      6  C   UNL     1      39.768 -25.607 -14.009  0.00  0.00    +0.069 C 
ENDROOT
BRANCH   4   9
ATOM      7  O   UNL     1      34.585 -24.411 -12.542  0.00  0.00    -0.125 OA
ATOM      8  O   UNL     1      35.224 -25.285 -10.632  0.00  0.00    -0.125 OA
ATOM      9  N   UNL     1      35.506 -24.773 -11.754  0.00  0.00    +0.074 N 
ENDBRANCH   4   9
BRANCH   1  10
ATOM     10  C   UNL     1      36.931 -26.560 -13.701  0.00  0.00    +0.130 C 
BRANCH  10  11
ATOM     11  C   UNL     1      36.372 -26.195 -15.069  0.00  0.00    +0.159 C 
BRANCH  11  12
ATOM     12  O   UNL     1      36.867 -27.101 -16.046  0.00  0.00    -0.380 OA
ATOM     13  H   UNL     1      36.695 -28.012 -15.760  0.00  0.00    +0.211 HD
ENDBRANCH  11  12
ENDBRANCH  10  11
ENDBRANCH   1  10
TORSDOF 4
ENDMDL
MODEL 2
REMARK VINA RESULT:      -6.0      2.558      3.506
REMARK  Name = 4173
REMARK  4 active torsions:
REMARK  status: ('A' for Active; 'I' for Inactive)
REMARK    1  A    between atoms: N_1  and  C_10
REMARK    2  A    between atoms: C_4  and  N_9
REMARK    3  A    between atoms: C_10  and  C_11
REMARK    4  A    between atoms: C_11  and  O_12
REMARK                            x       y       z     vdW  Elec       q    Type
REMARK                         _______ _______ _______ _____ _____    ______ ____
ROOT
ATOM      1  N   UNL     1      37.368 -24.762 -13.685  0.00  0.00    -0.253 N 
ATOM      2  N   UNL     1      37.393 -24.320 -11.509  0.00  0.00    -0.230 NA
ATOM      3  C   UNL     1      36.655 -24.344 -12.596  0.00  0.00    +0.114 C 
ATOM      4  C   UNL     1      38.642 -25.022 -13.265  0.00  0.00    +0.218 C 
ATOM      5  C   UNL     1      38.632 -24.741 -11.918  0.00  0.00    +0.140 C 
ATOM      6  C   UNL     1      35.228 -23.970 -12.684  0.00  0.00    +0.069 C 
ENDROOT
BRANCH   4   9
ATOM      7  O   UNL     1      39.643 -26.666 -14.534  0.00  0.00    -0.125 OA
ATOM      8  O   UNL     1      40.596 -24.690 -14.444  0.00  0.00    -0.125 OA
ATOM      9  N   UNL     1      39.661 -25.474 -14.110  0.00  0.00    +0.074 N 
ENDBRANCH   4   9
BRANCH   1  10
ATOM     10  C   UNL     1      36.861 -24.906 -15.031  0.00  0.00    +0.130 C 
BRANCH  10  11
ATOM     11  C   UNL     1      36.277 -26.289 -15.289  0.00  0.00    +0.159 C 
BRANCH  11  12
ATOM     12  O   UNL     1      37.187 -27.055 -16.068  0.00  0.00    -0.380 OA
ATOM     13  H   UNL     1      36.960 -26.971 -17.008  0.00  0.00    +0.211 HD
ENDBRANCH  11  12
ENDBRANCH  10  11
ENDBRANCH   1  10
TORSDOF 4
ENDMDL
MODEL 3
REMARK VINA RESULT:      -6.0      2.219      3.227
REMARK  Name = 4173
REMARK  4 active torsions:
REMARK  status: ('A' for Active; 'I' for Inactive)
REMARK    1  A    between atoms: N_1  and  C_10
REMARK    2  A    between atoms: C_4  and  N_9
REMARK    3  A    between atoms: C_10  and  C_11
REMARK    4  A    between atoms: C_11  and  O_12
REMARK                            x       y       z     vdW  Elec       q    Type
REMARK                         _______ _______ _______ _____ _____    ______ ____
ROOT
ATOM      1  N   UNL     1      36.762 -24.739 -13.585  0.00  0.00    -0.253 N 
ATOM      2  N   UNL     1      38.167 -26.455 -13.702  0.00  0.00    -0.230 NA
ATOM      3  C   UNL     1      37.126 -25.874 -14.254  0.00  0.00    +0.114 C 
ATOM      4  C   UNL     1      37.628 -24.586 -12.540  0.00  0.00    +0.218 C 
ATOM      5  C   UNL     1      38.486 -25.657 -12.633  0.00  0.00    +0.140 C 
ATOM      6  C   UNL     1      36.398 -26.353 -15.448  0.00  0.00    +0.069 C 
ENDROOT
BRANCH   4   9
ATOM      7  O   UNL     1      36.885 -23.648 -10.568  0.00  0.00    -0.125 OA
ATOM      8  O   UNL     1      38.188 -22.452 -11.869  0.00  0.00    -0.125 OA
ATOM      9  N   UNL     1      37.565 -23.526 -11.628  0.00  0.00    +0.074 N 
ENDBRANCH   4   9
BRANCH   1  10
ATOM     10  C   UNL     1      35.664 -23.863 -13.928  0.00  0.00    +0.130 C 
BRANCH  10  11
ATOM     11  C   UNL     1      34.366 -24.257 -13.236  0.00  0.00    +0.159 C 
BRANCH  11  12
ATOM     12  O   UNL     1      34.231 -23.529 -12.022  0.00  0.00    -0.380 OA
ATOM     13  H   UNL     1      34.546 -22.621 -12.153  0.00  0.00    +0.211 HD
ENDBRANCH  11  12
ENDBRANCH  10  11
ENDBRANCH   1  10
TORSDOF 4
ENDMDL
MODEL 4
REMARK VINA RESULT:      -5.9      2.634      4.513
REMARK  Name = 4173
REMARK  4 active torsions:
REMARK  status: ('A' for Active; 'I' for Inactive)
REMARK    1  A    between atoms: N_1  and  C_10
REMARK    2  A    between atoms: C_4  and  N_9
REMARK    3  A    between atoms: C_10  and  C_11
REMARK    4  A    between atoms: C_11  and  O_12
REMARK                            x       y       z     vdW  Elec       q    Type
REMARK                         _______ _______ _______ _____ _____    ______ ____
ROOT
ATOM      1  N   UNL     1      36.888 -24.553 -14.362  0.00  0.00    -0.253 N 
ATOM      2  N   UNL     1      35.793 -26.161 -15.435  0.00  0.00    -0.230 NA
ATOM      3  C   UNL     1      35.690 -24.982 -14.863  0.00  0.00    +0.114 C 
ATOM      4  C   UNL     1      37.814 -25.521 -14.633  0.00  0.00    +0.218 C 
ATOM      5  C   UNL     1      37.114 -26.502 -15.296  0.00  0.00    +0.140 C 
ATOM      6  C   UNL     1      34.455 -24.181 -14.745  0.00  0.00    +0.069 C 
ENDROOT
BRANCH   4   9
ATOM      7  O   UNL     1      39.965 -24.772 -14.992  0.00  0.00    -0.125 OA
ATOM      8  O   UNL     1      39.570 -26.005 -13.218  0.00  0.00    -0.125 OA
ATOM      9  N   UNL     1      39.162 -25.430 -14.268  0.00  0.00    +0.074 N 
ENDBRANCH   4   9
BRANCH   1  10
ATOM     10  C   UNL     1      37.126 -23.303 -13.677  0.00  0.00    +0.130 C 
BRANCH  10  11
ATOM     11  C   UNL     1      37.188 -23.471 -12.164  0.00  0.00    +0.159 C 
BRANCH  11  12
ATOM     12  O   UNL     1      38.528 -23.303 -11.719  0.00  0.00    -0.380 OA
ATOM     13  H   UNL     1      38.724 -22.357 -11.632  0.00  0.00    +0.211 HD
ENDBRANCH  11  12
ENDBRANCH  10  11
ENDBRANCH   1  10
TORSDOF 4
ENDMDL
MODEL 5
REMARK VINA RESULT:      -5.9      2.348      3.452
REMARK  Name = 4173
REMARK  4 active torsions:
REMARK  status: ('A' for Active; 'I' for Inactive)
REMARK    1  A    between atoms: N_1  and  C_10
REMARK    2  A    between atoms: C_4  and  N_9
REMARK    3  A    between atoms: C_10  and  C_11
REMARK    4  A    between atoms: C_11  and  O_12
REMARK                            x       y       z     vdW  Elec       q    Type
REMARK                         _______ _______ _______ _____ _____    ______ ____
ROOT
ATOM      1  N   UNL     1      36.510 -24.467 -14.683  0.00  0.00    -0.253 N 
ATOM      2  N   UNL     1      38.430 -23.577 -15.356  0.00  0.00    -0.230 NA
ATOM      3  C   UNL     1      37.121 -23.466 -15.386  0.00  0.00    +0.114 C 
ATOM      4  C   UNL     1      37.493 -25.266 -14.171  0.00  0.00    +0.218 C 
ATOM      5  C   UNL     1      38.669 -24.696 -14.600  0.00  0.00    +0.140 C 
ATOM      6  C   UNL     1      36.355 -22.414 -16.085  0.00  0.00    +0.069 C 
ENDROOT
BRANCH   4   9
ATOM      7  O   UNL     1      37.167 -27.536 -13.936  0.00  0.00    -0.125 OA
ATOM      8  O   UNL     1      37.098 -26.278 -12.137  0.00  0.00    -0.125 OA
ATOM      9  N   UNL     1      37.245 -26.398 -13.388  0.00  0.00    +0.074 N 
ENDBRANCH   4   9
BRANCH   1  10
ATOM     10  C   UNL     1      35.085 -24.640 -14.512  0.00  0.00    +0.130 C 
BRANCH  10  11
ATOM     11  C   UNL     1      34.566 -23.979 -13.242  0.00  0.00    +0.159 C 
BRANCH  11  12
ATOM     12  O   UNL     1      34.490 -24.940 -12.198  0.00  0.00    -0.380 OA
ATOM     13  H   UNL     1      33.765 -24.707 -11.595  0.00  0.00    +0.211 HD
ENDBRANCH  11  12
ENDBRANCH  10  11
ENDBRANCH   1  10
TORSDOF 4
ENDMDL
MODEL 6
REMARK VINA RESULT:      -5.8      2.744      4.427
REMARK  Name = 4173
REMARK  4 active torsions:
REMARK  status: ('A' for Active; 'I' for Inactive)
REMARK    1  A    between atoms: N_1  and  C_10
REMARK    2  A    between atoms: C_4  and  N_9
REMARK    3  A    between atoms: C_10  and  C_11
REMARK    4  A    between atoms: C_11  and  O_12
REMARK                            x       y       z     vdW  Elec       q    Type
REMARK                         _______ _______ _______ _____ _____    ______ ____
ROOT
ATOM      1  N   UNL     1      37.579 -25.168 -14.729  0.00  0.00    -0.253 N 
ATOM      2  N   UNL     1      36.930 -23.347 -15.824  0.00  0.00    -0.230 NA
ATOM      3  C   UNL     1      36.529 -24.388 -15.128  0.00  0.00    +0.114 C 
ATOM      4  C   UNL     1      38.722 -24.587 -15.201  0.00  0.00    +0.218 C 
ATOM      5  C   UNL     1      38.295 -23.465 -15.872  0.00  0.00    +0.140 C 
ATOM      6  C   UNL     1      35.128 -24.721 -14.796  0.00  0.00    +0.069 C 
ENDROOT
BRANCH   4   9
ATOM      7  O   UNL     1      40.665 -24.748 -13.970  0.00  0.00    -0.125 OA
ATOM      8  O   UNL     1      40.492 -25.934 -15.809  0.00  0.00    -0.125 OA
ATOM      9  N   UNL     1      40.003 -25.107 -14.986  0.00  0.00    +0.074 N 
ENDBRANCH   4   9
BRANCH   1  10
ATOM     10  C   UNL     1      37.489 -26.382 -13.949  0.00  0.00    +0.130 C 
BRANCH  10  11
ATOM     11  C   UNL     1      37.697 -26.134 -12.461  0.00  0.00    +0.159 C 
BRANCH  11  12
ATOM     12  O   UNL     1      36.436 -25.988 -11.820  0.00  0.00    -0.380 OA
ATOM     13  H   UNL     1      35.727 -26.091 -12.474  0.00  0.00    +0.211 HD
ENDBRANCH  11  12
ENDBRANCH  10  11
ENDBRANCH   1  10
TORSDOF 4
ENDMDL
MODEL 7
REMARK VINA RESULT:      -5.8      7.792      8.689
REMARK  Name = 4173
REMARK  4 active torsions:
REMARK  status: ('A' for Active; 'I' for Inactive)
REMARK    1  A    between atoms: N_1  and  C_10
REMARK    2  A    between atoms: C_4  and  N_9
REMARK    3  A    between atoms: C_10  and  C_11
REMARK    4  A    between atoms: C_11  and  O_12
REMARK                            x       y       z     vdW  Elec       q    Type
REMARK                         _______ _______ _______ _____ _____    ______ ____
ROOT
ATOM      1  N   UNL     1      35.142 -20.913 -19.986  0.00  0.00    -0.253 N 
ATOM      2  N   UNL     1      33.887 -19.349 -20.942  0.00  0.00    -0.230 NA
ATOM      3  C   UNL     1      35.115 -19.726 -20.664  0.00  0.00    +0.114 C 
ATOM      4  C   UNL     1      33.848 -21.319 -19.823  0.00  0.00    +0.218 C 
ATOM      5  C   UNL     1      33.092 -20.337 -20.420  0.00  0.00    +0.140 C 
ATOM      6  C   UNL     1      36.348 -18.990 -21.013  0.00  0.00    +0.069 C 
ENDROOT
BRANCH   4   9
ATOM      7  O   UNL     1      33.976 -23.604 -19.543  0.00  0.00    -0.125 OA
ATOM      8  O   UNL     1      32.658 -22.461 -18.210  0.00  0.00    -0.125 OA
ATOM      9  N   UNL     1      33.481 -22.501 -19.170  0.00  0.00    +0.074 N 
ENDBRANCH   4   9
BRANCH   1  10
ATOM     10  C   UNL     1      36.325 -21.609 -19.533  0.00  0.00    +0.130 C 
BRANCH  10  11
ATOM     11  C   UNL     1      36.468 -21.588 -18.017  0.00  0.00    +0.159 C 
BRANCH  11  12
ATOM     12  O   UNL     1      37.211 -20.443 -17.622  0.00  0.00    -0.380 OA
ATOM     13  H   UNL     1      38.087 -20.465 -18.040  0.00  0.00    +0.211 HD
ENDBRANCH  11  12
ENDBRANCH  10  11
ENDBRANCH   1  10
TORSDOF 4
ENDMDL
MODEL 8
REMARK VINA RESULT:      -5.7      2.222      3.282
REMARK  Name = 4173
REMARK  4 active torsions:
REMARK  status: ('A' for Active; 'I' for Inactive)
REMARK    1  A    between atoms: N_1  and  C_10
REMARK    2  A    between atoms: C_4  and  N_9
REMARK    3  A    between atoms: C_10  and  C_11
REMARK    4  A    between atoms: C_11  and  O_12
REMARK                            x       y       z     vdW  Elec       q    Type
REMARK                         _______ _______ _______ _____ _____    ______ ____
ROOT
ATOM      1  N   UNL     1      36.116 -24.546 -13.681  0.00  0.00    -0.253 N 
ATOM      2  N   UNL     1      34.365 -23.953 -12.449  0.00  0.00    -0.230 NA
ATOM      3  C   UNL     1      34.785 -24.231 -13.663  0.00  0.00    +0.114 C 
ATOM      4  C   UNL     1      36.573 -24.464 -12.396  0.00  0.00    +0.218 C 
ATOM      5  C   UNL     1      35.474 -24.097 -11.654  0.00  0.00    +0.140 C 
ATOM      6  C   UNL     1      33.963 -24.213 -14.890  0.00  0.00    +0.069 C 
ENDROOT
BRANCH   4   9
ATOM      7  O   UNL     1      38.290 -25.917 -11.887  0.00  0.00    -0.125 OA
ATOM      8  O   UNL     1      38.694 -23.759 -11.829  0.00  0.00    -0.125 OA
ATOM      9  N   UNL     1      37.897 -24.722 -12.024  0.00  0.00    +0.074 N 
ENDBRANCH   4   9
BRANCH   1  10
ATOM     10  C   UNL     1      36.891 -24.903 -14.848  0.00  0.00    +0.130 C 
BRANCH  10  11
ATOM     11  C   UNL     1      36.908 -26.405 -15.098  0.00  0.00    +0.159 C 
BRANCH  11  12
ATOM     12  O   UNL     1      38.153 -26.947 -14.674  0.00  0.00    -0.380 OA
ATOM     13  H   UNL     1      38.857 -26.642 -15.269  0.00  0.00    +0.211 HD
ENDBRANCH  11  12
ENDBRANCH  10  11
ENDBRANCH   1  10
TORSDOF 4
ENDMDL
MODEL 9
REMARK VINA RESULT:      -5.7     13.418     14.327
REMARK  Name = 4173
REMARK  4 active torsions:
REMARK  status: ('A' for Active; 'I' for Inactive)
REMARK    1  A    between atoms: N_1  and  C_10
REMARK    2  A    between atoms: C_4  and  N_9
REMARK    3  A    between atoms: C_10  and  C_11
REMARK    4  A    between atoms: C_11  and  O_12
REMARK                            x       y       z     vdW  Elec       q    Type
REMARK                         _______ _______ _______ _____ _____    ______ ____
ROOT
ATOM      1  N   UNL     1      33.927 -16.081 -23.595  0.00  0.00    -0.253 N 
ATOM      2  N   UNL     1      34.287 -16.243 -25.781  0.00  0.00    -0.230 NA
ATOM      3  C   UNL     1      33.756 -15.512 -24.827  0.00  0.00    +0.114 C 
ATOM      4  C   UNL     1      34.613 -17.249 -23.777  0.00  0.00    +0.218 C 
ATOM      5  C   UNL     1      34.823 -17.327 -25.134  0.00  0.00    +0.140 C 
ATOM      6  C   UNL     1      33.045 -14.230 -25.010  0.00  0.00    +0.069 C 
ENDROOT
BRANCH   4   9
ATOM      7  O   UNL     1      36.034 -17.891 -22.078  0.00  0.00    -0.125 OA
ATOM      8  O   UNL     1      34.237 -19.097 -22.449  0.00  0.00    -0.125 OA
ATOM      9  N   UNL     1      34.973 -18.109 -22.733  0.00  0.00    +0.074 N 
ENDBRANCH   4   9
BRANCH   1  10
ATOM     10  C   UNL     1      33.469 -15.540 -22.335  0.00  0.00    +0.130 C 
BRANCH  10  11
ATOM     11  C   UNL     1      34.564 -14.786 -21.593  0.00  0.00    +0.159 C 
BRANCH  11  12
ATOM     12  O   UNL     1      34.942 -15.512 -20.431  0.00  0.00    -0.380 OA
ATOM     13  H   UNL     1      34.161 -15.946 -20.052  0.00  0.00    +0.211 HD
ENDBRANCH  11  12
ENDBRANCH  10  11
ENDBRANCH   1  10
TORSDOF 4
ENDMDL
