MODEL 1
REMARK VINA RESULT:     -10.6      0.000      0.000
REMARK  Name = 154059
REMARK  3 active torsions:
REMARK  status: ('A' for Active; 'I' for Inactive)
REMARK    1  A    between atoms: C_3  and  O_19
REMARK    2  A    between atoms: C_4  and  C_13
REMARK    3  A    between atoms: O_19  and  C_22
REMARK                            x       y       z     vdW  Elec       q    Type
REMARK                         _______ _______ _______ _____ _____    ______ ____
ROOT
ATOM      1  O   UNL     1      34.346 -12.778 -24.135  0.00  0.00    -0.226 OA
ATOM      2  N   UNL     1      33.374 -10.711 -23.661  0.00  0.00    -0.240 N 
ATOM      3  C   UNL     1      33.432 -12.117 -23.644  0.00  0.00    +0.405 C 
ATOM      4  C   UNL     1      32.145  -9.962 -23.271  0.00  0.00    +0.123 C 
ATOM      5  C   UNL     1      34.474  -9.989 -24.308  0.00  0.00    +0.102 C 
ATOM      6  C   UNL     1      32.142  -8.499 -23.694  0.00  0.00    -0.004 C 
ATOM      7  C   UNL     1      34.646  -8.562 -23.810  0.00  0.00    +0.048 C 
ATOM      8  C   UNL     1      33.347  -7.818 -23.932  0.00  0.00    -0.023 C 
ATOM      9  C   UNL     1      30.930  -7.802 -23.818  0.00  0.00    -0.003 C 
ATOM     10  C   UNL     1      33.331  -6.455 -24.255  0.00  0.00    -0.004 C 
ATOM     11  C   UNL     1      30.921  -6.448 -24.157  0.00  0.00    -0.000 C 
ATOM     12  C   UNL     1      32.120  -5.776 -24.370  0.00  0.00    -0.000 C 
ENDROOT
BRANCH   4  13
ATOM     13  C   UNL     1      31.840 -10.103 -21.780  0.00  0.00    -0.000 C 
ATOM     14  C   UNL     1      32.502  -9.295 -20.863  0.00  0.00    -0.002 C 
ATOM     15  C   UNL     1      30.902 -11.036 -21.356  0.00  0.00    -0.002 C 
ATOM     16  C   UNL     1      32.223  -9.423 -19.503  0.00  0.00    -0.000 C 
ATOM     17  C   UNL     1      30.623 -11.164 -19.995  0.00  0.00    -0.000 C 
ATOM     18  C   UNL     1      31.282 -10.358 -19.068  0.00  0.00    -0.000 C 
ENDBRANCH   4  13
BRANCH   3  19
ATOM     19  O   UNL     1      32.352 -12.684 -23.020  0.00  0.00    -0.441 OA
BRANCH  19  22
ATOM     20  N   UNL     1      34.505 -15.318 -22.081  0.00  0.00    +0.389 N 
ATOM     21  C   UNL     1      32.238 -14.350 -21.257  0.00  0.00    +0.034 C 
ATOM     22  C   UNL     1      32.437 -14.089 -22.762  0.00  0.00    +0.150 C 
ATOM     23  C   UNL     1      33.418 -13.730 -20.488  0.00  0.00    -0.019 C 
ATOM     24  C   UNL     1      32.296 -15.870 -21.044  0.00  0.00    -0.019 C 
ATOM     25  C   UNL     1      33.811 -14.632 -23.196  0.00  0.00    -0.033 C 
ATOM     26  C   UNL     1      34.734 -14.340 -20.996  0.00  0.00    -0.077 C 
ATOM     27  C   UNL     1      33.638 -16.404 -21.570  0.00  0.00    -0.077 C 
ATOM     28  H   UNL     1      35.391 -15.704 -22.404  0.00  0.00    -0.080 HD
ENDBRANCH  19  22
ENDBRANCH   3  19
TORSDOF 3
ENDMDL
MODEL 2
REMARK VINA RESULT:     -10.3     12.815     15.917
REMARK  Name = 154059
REMARK  3 active torsions:
REMARK  status: ('A' for Active; 'I' for Inactive)
REMARK    1  A    between atoms: C_3  and  O_19
REMARK    2  A    between atoms: C_4  and  C_13
REMARK    3  A    between atoms: O_19  and  C_22
REMARK                            x       y       z     vdW  Elec       q    Type
REMARK                         _______ _______ _______ _____ _____    ______ ____
ROOT
ATOM      1  O   UNL     1      31.946 -23.046 -12.822  0.00  0.00    -0.226 OA
ATOM      2  N   UNL     1      33.938 -23.833 -13.749  0.00  0.00    -0.240 N 
ATOM      3  C   UNL     1      32.582 -23.457 -13.792  0.00  0.00    +0.405 C 
ATOM      4  C   UNL     1      34.602 -24.544 -14.878  0.00  0.00    +0.123 C 
ATOM      5  C   UNL     1      34.635 -23.727 -12.464  0.00  0.00    +0.102 C 
ATOM      6  C   UNL     1      35.936 -25.184 -14.518  0.00  0.00    -0.004 C 
ATOM      7  C   UNL     1      36.145 -23.588 -12.596  0.00  0.00    +0.048 C 
ATOM      8  C   UNL     1      36.690 -24.709 -13.433  0.00  0.00    -0.023 C 
ATOM      9  C   UNL     1      36.446 -26.239 -15.291  0.00  0.00    -0.003 C 
ATOM     10  C   UNL     1      37.946 -25.263 -13.155  0.00  0.00    -0.004 C 
ATOM     11  C   UNL     1      37.690 -26.798 -14.999  0.00  0.00    -0.000 C 
ATOM     12  C   UNL     1      38.440 -26.307 -13.934  0.00  0.00    -0.000 C 
ENDROOT
BRANCH   4  13
ATOM     13  C   UNL     1      34.735 -23.656 -16.114  0.00  0.00    -0.000 C 
ATOM     14  C   UNL     1      35.790 -22.756 -16.203  0.00  0.00    -0.002 C 
ATOM     15  C   UNL     1      33.801 -23.758 -17.138  0.00  0.00    -0.002 C 
ATOM     16  C   UNL     1      35.913 -21.945 -17.331  0.00  0.00    -0.000 C 
ATOM     17  C   UNL     1      33.923 -22.947 -18.267  0.00  0.00    -0.000 C 
ATOM     18  C   UNL     1      34.979 -22.041 -18.364  0.00  0.00    -0.000 C 
ENDBRANCH   4  13
BRANCH   3  19
ATOM     19  O   UNL     1      32.032 -23.602 -15.039  0.00  0.00    -0.441 OA
BRANCH  19  22
ATOM     20  N   UNL     1      29.179 -23.221 -17.081  0.00  0.00    +0.389 N 
ATOM     21  C   UNL     1      29.684 -23.246 -14.532  0.00  0.00    +0.034 C 
ATOM     22  C   UNL     1      30.908 -22.766 -15.334  0.00  0.00    +0.150 C 
ATOM     23  C   UNL     1      29.284 -24.645 -15.031  0.00  0.00    -0.019 C 
ATOM     24  C   UNL     1      28.524 -22.292 -14.852  0.00  0.00    -0.019 C 
ATOM     25  C   UNL     1      30.583 -22.816 -16.838  0.00  0.00    -0.033 C 
ATOM     26  C   UNL     1      28.980 -24.582 -16.537  0.00  0.00    -0.077 C 
ATOM     27  C   UNL     1      28.278 -22.286 -16.370  0.00  0.00    -0.077 C 
ATOM     28  H   UNL     1      28.977 -23.205 -18.080  0.00  0.00    -0.080 HD
ENDBRANCH  19  22
ENDBRANCH   3  19
TORSDOF 3
ENDMDL
MODEL 3
REMARK VINA RESULT:      -9.8      1.905      6.844
REMARK  Name = 154059
REMARK  3 active torsions:
REMARK  status: ('A' for Active; 'I' for Inactive)
REMARK    1  A    between atoms: C_3  and  O_19
REMARK    2  A    between atoms: C_4  and  C_13
REMARK    3  A    between atoms: O_19  and  C_22
REMARK                            x       y       z     vdW  Elec       q    Type
REMARK                         _______ _______ _______ _____ _____    ______ ____
ROOT
ATOM      1  O   UNL     1      31.637 -11.342 -20.870  0.00  0.00    -0.226 OA
ATOM      2  N   UNL     1      32.682 -12.622 -22.517  0.00  0.00    -0.240 N 
ATOM      3  C   UNL     1      32.001 -11.489 -22.036  0.00  0.00    +0.405 C 
ATOM      4  C   UNL     1      32.891 -12.865 -23.973  0.00  0.00    +0.123 C 
ATOM      5  C   UNL     1      32.977 -13.697 -21.565  0.00  0.00    +0.102 C 
ATOM      6  C   UNL     1      33.312 -14.288 -24.317  0.00  0.00    -0.004 C 
ATOM      7  C   UNL     1      34.155 -14.570 -21.973  0.00  0.00    +0.048 C 
ATOM      8  C   UNL     1      33.941 -15.101 -23.361  0.00  0.00    -0.023 C 
ATOM      9  C   UNL     1      33.105 -14.793 -25.610  0.00  0.00    -0.003 C 
ATOM     10  C   UNL     1      34.382 -16.383 -23.711  0.00  0.00    -0.004 C 
ATOM     11  C   UNL     1      33.532 -16.077 -25.949  0.00  0.00    -0.000 C 
ATOM     12  C   UNL     1      34.173 -16.869 -25.001  0.00  0.00    -0.000 C 
ENDROOT
BRANCH   4  13
ATOM     13  C   UNL     1      33.848 -11.845 -24.591  0.00  0.00    -0.000 C 
ATOM     14  C   UNL     1      34.492 -10.925 -23.774  0.00  0.00    -0.002 C 
ATOM     15  C   UNL     1      34.065 -11.850 -25.963  0.00  0.00    -0.002 C 
ATOM     16  C   UNL     1      35.366  -9.994 -24.337  0.00  0.00    -0.000 C 
ATOM     17  C   UNL     1      34.939 -10.920 -26.527  0.00  0.00    -0.000 C 
ATOM     18  C   UNL     1      35.590  -9.992 -25.714  0.00  0.00    -0.000 C 
ENDBRANCH   4  13
BRANCH   3  19
ATOM     19  O   UNL     1      31.774 -10.553 -23.012  0.00  0.00    -0.441 OA
BRANCH  19  22
ATOM     20  N   UNL     1      32.542  -7.441 -21.537  0.00  0.00    +0.389 N 
ATOM     21  C   UNL     1      31.364  -8.261 -23.703  0.00  0.00    +0.034 C 
ATOM     22  C   UNL     1      31.235  -9.302 -22.574  0.00  0.00    +0.150 C 
ATOM     23  C   UNL     1      32.857  -7.988 -23.954  0.00  0.00    -0.019 C 
ATOM     24  C   UNL     1      30.734  -6.956 -23.197  0.00  0.00    -0.019 C 
ATOM     25  C   UNL     1      31.989  -8.799 -21.330  0.00  0.00    -0.033 C 
ATOM     26  C   UNL     1      33.510  -7.491 -22.654  0.00  0.00    -0.077 C 
ATOM     27  C   UNL     1      31.440  -6.522 -21.902  0.00  0.00    -0.077 C 
ATOM     28  H   UNL     1      32.999  -7.114 -20.687  0.00  0.00    -0.080 HD
ENDBRANCH  19  22
ENDBRANCH   3  19
TORSDOF 3
ENDMDL
MODEL 4
REMARK VINA RESULT:      -9.7      2.484      5.246
REMARK  Name = 154059
REMARK  3 active torsions:
REMARK  status: ('A' for Active; 'I' for Inactive)
REMARK    1  A    between atoms: C_3  and  O_19
REMARK    2  A    between atoms: C_4  and  C_13
REMARK    3  A    between atoms: O_19  and  C_22
REMARK                            x       y       z     vdW  Elec       q    Type
REMARK                         _______ _______ _______ _____ _____    ______ ____
ROOT
ATOM      1  O   UNL     1      32.592 -15.456 -20.177  0.00  0.00    -0.226 OA
ATOM      2  N   UNL     1      32.928 -13.874 -21.858  0.00  0.00    -0.240 N 
ATOM      3  C   UNL     1      33.116 -15.124 -21.240  0.00  0.00    +0.405 C 
ATOM      4  C   UNL     1      33.760 -13.425 -23.011  0.00  0.00    +0.123 C 
ATOM      5  C   UNL     1      32.052 -12.906 -21.191  0.00  0.00    +0.102 C 
ATOM      6  C   UNL     1      33.667 -11.934 -23.308  0.00  0.00    -0.004 C 
ATOM      7  C   UNL     1      31.453 -11.872 -22.134  0.00  0.00    +0.048 C 
ATOM      8  C   UNL     1      32.546 -11.191 -22.905  0.00  0.00    -0.023 C 
ATOM      9  C   UNL     1      34.690 -11.290 -24.021  0.00  0.00    -0.003 C 
ATOM     10  C   UNL     1      32.445  -9.835 -23.243  0.00  0.00    -0.004 C 
ATOM     11  C   UNL     1      34.591  -9.936 -24.340  0.00  0.00    -0.000 C 
ATOM     12  C   UNL     1      33.467  -9.211 -23.955  0.00  0.00    -0.000 C 
ENDROOT
BRANCH   4  13
ATOM     13  C   UNL     1      33.490 -14.252 -24.268  0.00  0.00    -0.000 C 
ATOM     14  C   UNL     1      32.584 -13.789 -25.214  0.00  0.00    -0.002 C 
ATOM     15  C   UNL     1      34.153 -15.459 -24.452  0.00  0.00    -0.002 C 
ATOM     16  C   UNL     1      32.337 -14.543 -26.361  0.00  0.00    -0.000 C 
ATOM     17  C   UNL     1      33.908 -16.214 -25.599  0.00  0.00    -0.000 C 
ATOM     18  C   UNL     1      33.000 -15.756 -26.554  0.00  0.00    -0.000 C 
ENDBRANCH   4  13
BRANCH   3  19
ATOM     19  O   UNL     1      33.956 -15.944 -21.947  0.00  0.00    -0.441 OA
BRANCH  19  22
ATOM     20  N   UNL     1      34.090 -19.469 -21.857  0.00  0.00    +0.389 N 
ATOM     21  C   UNL     1      35.805 -17.517 -21.879  0.00  0.00    +0.034 C 
ATOM     22  C   UNL     1      34.473 -17.077 -21.242  0.00  0.00    +0.150 C 
ATOM     23  C   UNL     1      35.525 -18.025 -23.305  0.00  0.00    -0.019 C 
ATOM     24  C   UNL     1      36.334 -18.703 -21.060  0.00  0.00    -0.019 C 
ATOM     25  C   UNL     1      33.472 -18.245 -21.296  0.00  0.00    -0.033 C 
ATOM     26  C   UNL     1      34.520 -19.187 -23.244  0.00  0.00    -0.077 C 
ATOM     27  C   UNL     1      35.279 -19.822 -21.050  0.00  0.00    -0.077 C 
ATOM     28  H   UNL     1      33.420 -20.238 -21.843  0.00  0.00    -0.080 HD
ENDBRANCH  19  22
ENDBRANCH   3  19
TORSDOF 3
ENDMDL
MODEL 5
REMARK VINA RESULT:      -9.4     12.891     16.206
REMARK  Name = 154059
REMARK  3 active torsions:
REMARK  status: ('A' for Active; 'I' for Inactive)
REMARK    1  A    between atoms: C_3  and  O_19
REMARK    2  A    between atoms: C_4  and  C_13
REMARK    3  A    between atoms: O_19  and  C_22
REMARK                            x       y       z     vdW  Elec       q    Type
REMARK                         _______ _______ _______ _____ _____    ______ ____
ROOT
ATOM      1  O   UNL     1      32.764 -23.166 -12.756  0.00  0.00    -0.226 OA
ATOM      2  N   UNL     1      34.866 -23.739 -13.590  0.00  0.00    -0.240 N 
ATOM      3  C   UNL     1      33.492 -23.462 -13.704  0.00  0.00    +0.405 C 
ATOM      4  C   UNL     1      35.655 -24.321 -14.713  0.00  0.00    +0.123 C 
ATOM      5  C   UNL     1      35.469 -23.672 -12.255  0.00  0.00    +0.102 C 
ATOM      6  C   UNL     1      37.009 -24.885 -14.303  0.00  0.00    -0.004 C 
ATOM      7  C   UNL     1      36.969 -23.413 -12.273  0.00  0.00    +0.048 C 
ATOM      8  C   UNL     1      37.652 -24.431 -13.140  0.00  0.00    -0.023 C 
ATOM      9  C   UNL     1      37.648 -25.843 -15.105  0.00  0.00    -0.003 C 
ATOM     10  C   UNL     1      38.926 -24.910 -12.811  0.00  0.00    -0.004 C 
ATOM     11  C   UNL     1      38.910 -26.329 -14.762  0.00  0.00    -0.000 C 
ATOM     12  C   UNL     1      39.550 -25.859 -13.619  0.00  0.00    -0.000 C 
ENDROOT
BRANCH   4  13
ATOM     13  C   UNL     1      35.799 -23.341 -15.878  0.00  0.00    -0.000 C 
ATOM     14  C   UNL     1      36.869 -22.456 -15.903  0.00  0.00    -0.002 C 
ATOM     15  C   UNL     1      34.859 -23.348 -16.901  0.00  0.00    -0.002 C 
ATOM     16  C   UNL     1      37.001 -21.562 -16.966  0.00  0.00    -0.000 C 
ATOM     17  C   UNL     1      34.990 -22.454 -17.965  0.00  0.00    -0.000 C 
ATOM     18  C   UNL     1      36.061 -21.562 -17.998  0.00  0.00    -0.000 C 
ENDBRANCH   4  13
BRANCH   3  19
ATOM     19  O   UNL     1      33.036 -23.560 -14.993  0.00  0.00    -0.441 OA
BRANCH  19  22
ATOM     20  N   UNL     1      30.064 -24.934 -13.676  0.00  0.00    +0.389 N 
ATOM     21  C   UNL     1      30.791 -23.788 -15.892  0.00  0.00    +0.034 C 
ATOM     22  C   UNL     1      31.981 -24.499 -15.220  0.00  0.00    +0.150 C 
ATOM     23  C   UNL     1      30.208 -22.763 -14.903  0.00  0.00    -0.019 C 
ATOM     24  C   UNL     1      29.711 -24.847 -16.152  0.00  0.00    -0.019 C 
ATOM     25  C   UNL     1      31.519 -25.120 -13.890  0.00  0.00    -0.033 C 
ATOM     26  C   UNL     1      29.778 -23.485 -13.616  0.00  0.00    -0.077 C 
ATOM     27  C   UNL     1      29.331 -25.519 -14.822  0.00  0.00    -0.077 C 
ATOM     28  H   UNL     1      29.776 -25.390 -12.811  0.00  0.00    -0.080 HD
ENDBRANCH  19  22
ENDBRANCH   3  19
TORSDOF 3
ENDMDL
MODEL 6
REMARK VINA RESULT:      -9.4      2.377      4.967
REMARK  Name = 154059
REMARK  3 active torsions:
REMARK  status: ('A' for Active; 'I' for Inactive)
REMARK    1  A    between atoms: C_3  and  O_19
REMARK    2  A    between atoms: C_4  and  C_13
REMARK    3  A    between atoms: O_19  and  C_22
REMARK                            x       y       z     vdW  Elec       q    Type
REMARK                         _______ _______ _______ _____ _____    ______ ____
ROOT
ATOM      1  O   UNL     1      32.537 -15.401 -21.137  0.00  0.00    -0.226 OA
ATOM      2  N   UNL     1      32.895 -13.516 -22.466  0.00  0.00    -0.240 N 
ATOM      3  C   UNL     1      33.063 -14.868 -22.114  0.00  0.00    +0.405 C 
ATOM      4  C   UNL     1      33.730 -12.856 -23.509  0.00  0.00    +0.123 C 
ATOM      5  C   UNL     1      32.037 -12.690 -21.611  0.00  0.00    +0.102 C 
ATOM      6  C   UNL     1      33.662 -11.335 -23.496  0.00  0.00    -0.004 C 
ATOM      7  C   UNL     1      31.453 -11.477 -22.319  0.00  0.00    +0.048 C 
ATOM      8  C   UNL     1      32.555 -10.671 -22.944  0.00  0.00    -0.023 C 
ATOM      9  C   UNL     1      34.694 -10.576 -24.071  0.00  0.00    -0.003 C 
ATOM     10  C   UNL     1      32.475  -9.273 -23.000  0.00  0.00    -0.004 C 
ATOM     11  C   UNL     1      34.616  -9.184 -24.109  0.00  0.00    -0.000 C 
ATOM     12  C   UNL     1      33.506  -8.534 -23.577  0.00  0.00    -0.000 C 
ENDROOT
BRANCH   4  13
ATOM     13  C   UNL     1      33.442 -13.407 -24.905  0.00  0.00    -0.000 C 
ATOM     14  C   UNL     1      33.089 -14.742 -25.057  0.00  0.00    -0.002 C 
ATOM     15  C   UNL     1      33.535 -12.568 -26.008  0.00  0.00    -0.002 C 
ATOM     16  C   UNL     1      32.825 -15.246 -26.331  0.00  0.00    -0.000 C 
ATOM     17  C   UNL     1      33.271 -13.071 -27.282  0.00  0.00    -0.000 C 
ATOM     18  C   UNL     1      32.916 -14.409 -27.444  0.00  0.00    -0.000 C 
ENDBRANCH   4  13
BRANCH   3  19
ATOM     19  O   UNL     1      33.887 -15.542 -22.978  0.00  0.00    -0.441 OA
BRANCH  19  22
ATOM     20  N   UNL     1      34.787 -18.239 -20.889  0.00  0.00    +0.389 N 
ATOM     21  C   UNL     1      35.379 -17.433 -23.287  0.00  0.00    +0.034 C 
ATOM     22  C   UNL     1      34.982 -16.248 -22.386  0.00  0.00    +0.150 C 
ATOM     23  C   UNL     1      34.219 -18.443 -23.313  0.00  0.00    -0.019 C 
ATOM     24  C   UNL     1      36.581 -18.125 -22.629  0.00  0.00    -0.019 C 
ATOM     25  C   UNL     1      34.591 -16.774 -20.994  0.00  0.00    -0.033 C 
ATOM     26  C   UNL     1      33.913 -18.904 -21.879  0.00  0.00    -0.077 C 
ATOM     27  C   UNL     1      36.197 -18.560 -21.205  0.00  0.00    -0.077 C 
ATOM     28  H   UNL     1      34.562 -18.557 -19.946  0.00  0.00    -0.080 HD
ENDBRANCH  19  22
ENDBRANCH   3  19
TORSDOF 3
ENDMDL
MODEL 7
REMARK VINA RESULT:      -9.2      1.124      2.011
REMARK  Name = 154059
REMARK  3 active torsions:
REMARK  status: ('A' for Active; 'I' for Inactive)
REMARK    1  A    between atoms: C_3  and  O_19
REMARK    2  A    between atoms: C_4  and  C_13
REMARK    3  A    between atoms: O_19  and  C_22
REMARK                            x       y       z     vdW  Elec       q    Type
REMARK                         _______ _______ _______ _____ _____    ______ ____
ROOT
ATOM      1  O   UNL     1      35.564 -10.817 -24.616  0.00  0.00    -0.226 OA
ATOM      2  N   UNL     1      33.886  -9.309 -24.021  0.00  0.00    -0.240 N 
ATOM      3  C   UNL     1      34.435 -10.595 -24.180  0.00  0.00    +0.405 C 
ATOM      4  C   UNL     1      32.442  -9.093 -23.718  0.00  0.00    +0.123 C 
ATOM      5  C   UNL     1      34.715  -8.161 -24.400  0.00  0.00    +0.102 C 
ATOM      6  C   UNL     1      31.962  -7.665 -23.941  0.00  0.00    -0.004 C 
ATOM      7  C   UNL     1      34.326  -6.868 -23.699  0.00  0.00    +0.048 C 
ATOM      8  C   UNL     1      32.866  -6.591 -23.910  0.00  0.00    -0.023 C 
ATOM      9  C   UNL     1      30.599  -7.403 -24.148  0.00  0.00    -0.003 C 
ATOM     10  C   UNL     1      32.399  -5.278 -24.050  0.00  0.00    -0.004 C 
ATOM     11  C   UNL     1      30.143  -6.094 -24.304  0.00  0.00    -0.000 C 
ATOM     12  C   UNL     1      31.042  -5.033 -24.250  0.00  0.00    -0.000 C 
ENDROOT
BRANCH   4  13
ATOM     13  C   UNL     1      32.072  -9.585 -22.319  0.00  0.00    -0.000 C 
ATOM     14  C   UNL     1      31.275 -10.713 -22.176  0.00  0.00    -0.002 C 
ATOM     15  C   UNL     1      32.538  -8.899 -21.204  0.00  0.00    -0.002 C 
ATOM     16  C   UNL     1      30.937 -11.163 -20.899  0.00  0.00    -0.000 C 
ATOM     17  C   UNL     1      32.200  -9.348 -19.927  0.00  0.00    -0.000 C 
ATOM     18  C   UNL     1      31.401 -10.480 -19.774  0.00  0.00    -0.000 C 
ENDBRANCH   4  13
BRANCH   3  19
ATOM     19  O   UNL     1      33.572 -11.590 -23.800  0.00  0.00    -0.441 OA
BRANCH  19  22
ATOM     20  N   UNL     1      33.884 -14.664 -22.095  0.00  0.00    +0.389 N 
ATOM     21  C   UNL     1      32.963 -13.866 -24.390  0.00  0.00    +0.034 C 
ATOM     22  C   UNL     1      34.075 -12.928 -23.882  0.00  0.00    +0.150 C 
ATOM     23  C   UNL     1      31.845 -13.923 -23.334  0.00  0.00    -0.019 C 
ATOM     24  C   UNL     1      33.567 -15.273 -24.501  0.00  0.00    -0.019 C 
ATOM     25  C   UNL     1      34.554 -13.407 -22.500  0.00  0.00    -0.033 C 
ATOM     26  C   UNL     1      32.430 -14.413 -21.999  0.00  0.00    -0.077 C 
ATOM     27  C   UNL     1      34.124 -15.694 -23.131  0.00  0.00    -0.077 C 
ATOM     28  H   UNL     1      34.248 -14.983 -21.197  0.00  0.00    -0.080 HD
ENDBRANCH  19  22
ENDBRANCH   3  19
TORSDOF 3
ENDMDL
MODEL 8
REMARK VINA RESULT:      -9.2      1.636      6.398
REMARK  Name = 154059
REMARK  3 active torsions:
REMARK  status: ('A' for Active; 'I' for Inactive)
REMARK    1  A    between atoms: C_3  and  O_19
REMARK    2  A    between atoms: C_4  and  C_13
REMARK    3  A    between atoms: O_19  and  C_22
REMARK                            x       y       z     vdW  Elec       q    Type
REMARK                         _______ _______ _______ _____ _____    ______ ____
ROOT
ATOM      1  O   UNL     1      34.089 -11.023 -25.661  0.00  0.00    -0.226 OA
ATOM      2  N   UNL     1      33.791 -12.561 -23.932  0.00  0.00    -0.240 N 
ATOM      3  C   UNL     1      33.925 -11.266 -24.466  0.00  0.00    +0.405 C 
ATOM      4  C   UNL     1      33.833 -12.825 -22.466  0.00  0.00    +0.123 C 
ATOM      5  C   UNL     1      33.851 -13.693 -24.862  0.00  0.00    +0.102 C 
ATOM      6  C   UNL     1      34.038 -14.288 -22.097  0.00  0.00    -0.004 C 
ATOM      7  C   UNL     1      33.153 -14.944 -24.349  0.00  0.00    +0.048 C 
ATOM      8  C   UNL     1      33.690 -15.309 -22.995  0.00  0.00    -0.023 C 
ATOM      9  C   UNL     1      34.548 -14.634 -20.836  0.00  0.00    -0.003 C 
ATOM     10  C   UNL     1      33.821 -16.651 -22.616  0.00  0.00    -0.004 C 
ATOM     11  C   UNL     1      34.692 -15.973 -20.471  0.00  0.00    -0.000 C 
ATOM     12  C   UNL     1      34.325 -16.980 -21.359  0.00  0.00    -0.000 C 
ENDROOT
BRANCH   4  13
ATOM     13  C   UNL     1      32.618 -12.242 -21.745  0.00  0.00    -0.000 C 
ATOM     14  C   UNL     1      32.692 -11.967 -20.385  0.00  0.00    -0.002 C 
ATOM     15  C   UNL     1      31.451 -11.992 -22.457  0.00  0.00    -0.002 C 
ATOM     16  C   UNL     1      31.583 -11.434 -19.727  0.00  0.00    -0.000 C 
ATOM     17  C   UNL     1      30.342 -11.459 -21.800  0.00  0.00    -0.000 C 
ATOM     18  C   UNL     1      30.407 -11.180 -20.435  0.00  0.00    -0.000 C 
ENDBRANCH   4  13
BRANCH   3  19
ATOM     19  O   UNL     1      33.860 -10.288 -23.508  0.00  0.00    -0.441 OA
BRANCH  19  22
ATOM     20  N   UNL     1      31.404  -7.801 -23.026  0.00  0.00    +0.389 N 
ATOM     21  C   UNL     1      34.000  -7.907 -23.054  0.00  0.00    +0.034 C 
ATOM     22  C   UNL     1      33.391  -9.008 -23.942  0.00  0.00    +0.150 C 
ATOM     23  C   UNL     1      33.455  -8.069 -21.624  0.00  0.00    -0.019 C 
ATOM     24  C   UNL     1      33.501  -6.557 -23.590  0.00  0.00    -0.019 C 
ATOM     25  C   UNL     1      31.856  -8.941 -23.856  0.00  0.00    -0.033 C 
ATOM     26  C   UNL     1      31.920  -7.984 -21.652  0.00  0.00    -0.077 C 
ATOM     27  C   UNL     1      31.963  -6.548 -23.583  0.00  0.00    -0.077 C 
ATOM     28  H   UNL     1      30.386  -7.753 -23.019  0.00  0.00    -0.080 HD
ENDBRANCH  19  22
ENDBRANCH   3  19
TORSDOF 3
ENDMDL
MODEL 9
REMARK VINA RESULT:      -7.7      1.772      3.865
REMARK  Name = 154059
REMARK  3 active torsions:
REMARK  status: ('A' for Active; 'I' for Inactive)
REMARK    1  A    between atoms: C_3  and  O_19
REMARK    2  A    between atoms: C_4  and  C_13
REMARK    3  A    between atoms: O_19  and  C_22
REMARK                            x       y       z     vdW  Elec       q    Type
REMARK                         _______ _______ _______ _____ _____    ______ ____
ROOT
ATOM      1  O   UNL     1      31.733 -13.471 -21.007  0.00  0.00    -0.226 OA
ATOM      2  N   UNL     1      32.484 -11.821 -22.476  0.00  0.00    -0.240 N 
ATOM      3  C   UNL     1      32.476 -13.114 -21.921  0.00  0.00    +0.405 C 
ATOM      4  C   UNL     1      33.552 -11.363 -23.409  0.00  0.00    +0.123 C 
ATOM      5  C   UNL     1      31.545 -10.837 -21.929  0.00  0.00    +0.102 C 
ATOM      6  C   UNL     1      33.602  -9.855 -23.615  0.00  0.00    -0.004 C 
ATOM      7  C   UNL     1      31.204  -9.713 -22.896  0.00  0.00    +0.048 C 
ATOM      8  C   UNL     1      32.464  -9.063 -23.389  0.00  0.00    -0.023 C 
ATOM      9  C   UNL     1      34.780  -9.242 -24.067  0.00  0.00    -0.003 C 
ATOM     10  C   UNL     1      32.506  -7.687 -23.647  0.00  0.00    -0.004 C 
ATOM     11  C   UNL     1      34.820  -7.868 -24.306  0.00  0.00    -0.000 C 
ATOM     12  C   UNL     1      33.683  -7.093 -24.100  0.00  0.00    -0.000 C 
ENDROOT
BRANCH   4  13
ATOM     13  C   UNL     1      33.495 -12.098 -24.749  0.00  0.00    -0.000 C 
ATOM     14  C   UNL     1      34.228 -11.620 -25.827  0.00  0.00    -0.002 C 
ATOM     15  C   UNL     1      32.710 -13.238 -24.874  0.00  0.00    -0.002 C 
ATOM     16  C   UNL     1      34.177 -12.291 -27.049  0.00  0.00    -0.000 C 
ATOM     17  C   UNL     1      32.658 -13.910 -26.096  0.00  0.00    -0.000 C 
ATOM     18  C   UNL     1      33.392 -13.436 -27.183  0.00  0.00    -0.000 C 
ENDBRANCH   4  13
BRANCH   3  19
ATOM     19  O   UNL     1      33.395 -13.947 -22.504  0.00  0.00    -0.441 OA
BRANCH  19  22
ATOM     20  N   UNL     1      34.810 -17.179 -22.487  0.00  0.00    +0.389 N 
ATOM     21  C   UNL     1      33.193 -15.822 -20.974  0.00  0.00    +0.034 C 
ATOM     22  C   UNL     1      33.111 -15.348 -22.437  0.00  0.00    +0.150 C 
ATOM     23  C   UNL     1      34.648 -15.685 -20.492  0.00  0.00    -0.019 C 
ATOM     24  C   UNL     1      32.837 -17.315 -20.955  0.00  0.00    -0.019 C 
ATOM     25  C   UNL     1      34.119 -16.141 -23.287  0.00  0.00    -0.033 C 
ATOM     26  C   UNL     1      35.566 -16.515 -21.404  0.00  0.00    -0.077 C 
ATOM     27  C   UNL     1      33.798 -18.075 -21.883  0.00  0.00    -0.077 C 
ATOM     28  H   UNL     1      35.441 -17.718 -23.080  0.00  0.00    -0.080 HD
ENDBRANCH  19  22
ENDBRANCH   3  19
TORSDOF 3
ENDMDL
