MODEL 1
REMARK VINA RESULT:      -9.0      0.000      0.000
REMARK  Name = 33572
REMARK  9 active torsions:
REMARK  status: ('A' for Active; 'I' for Inactive)
REMARK    1  A    between atoms: N_1  and  C_4
REMARK    2  A    between atoms: N_1  and  C_17
REMARK    3  A    between atoms: C_4  and  C_6
REMARK    4  A    between atoms: C_6  and  C_7
REMARK    5  A    between atoms: C_6  and  O_15
REMARK    6  A    between atoms: C_12  and  O_13
REMARK    7  A    between atoms: C_17  and  C_18
REMARK    8  A    between atoms: C_18  and  C_19
REMARK    9  A    between atoms: C_24  and  O_25
REMARK                            x       y       z     vdW  Elec       q    Type
REMARK                         _______ _______ _______ _____ _____    ______ ____
ROOT
ATOM      1  N   UNL     1      35.298 -16.907 -24.138  0.00  0.00    +0.387 N 
ATOM      2  H   UNL     1      34.951 -16.881 -25.098  0.00  0.00    -0.084 HD
ATOM      3  H   UNL     1      36.311 -17.021 -24.133  0.00  0.00    -0.084 HD
ENDROOT
BRANCH   1   4
ATOM      4  C   UNL     1      34.689 -18.044 -23.435  0.00  0.00    -0.030 C 
ATOM      5  C   UNL     1      34.920 -19.299 -24.278  0.00  0.00    -0.021 C 
BRANCH   4   6
ATOM      6  C   UNL     1      35.295 -18.161 -22.018  0.00  0.00    +0.113 C 
BRANCH   6   7
ATOM      7  C   UNL     1      34.674 -19.260 -21.181  0.00  0.00    +0.002 C 
ATOM      8  C   UNL     1      35.495 -20.210 -20.599  0.00  0.00    +0.001 C 
ATOM      9  C   UNL     1      33.300 -19.291 -21.019  0.00  0.00    +0.001 C 
ATOM     10  C   UNL     1      34.923 -21.223 -19.829  0.00  0.00    +0.036 C 
ATOM     11  C   UNL     1      32.728 -20.303 -20.249  0.00  0.00    +0.036 C 
ATOM     12  C   UNL     1      33.540 -21.270 -19.655  0.00  0.00    +0.134 C 
BRANCH  12  13
ATOM     13  O   UNL     1      32.982 -22.258 -18.902  0.00  0.00    -0.506 OA
ATOM     14  H   UNL     1      32.051 -22.362 -18.883  0.00  0.00    +0.292 HD
ENDBRANCH  12  13
ENDBRANCH   6   7
BRANCH   6  15
ATOM     15  O   UNL     1      36.693 -18.448 -22.105  0.00  0.00    -0.382 OA
ATOM     16  H   UNL     1      37.003 -18.805 -21.257  0.00  0.00    +0.211 HD
ENDBRANCH   6  15
ENDBRANCH   4   6
ENDBRANCH   1   4
BRANCH   1  17
ATOM     17  C   UNL     1      34.961 -15.660 -23.476  0.00  0.00    -0.077 C 
BRANCH  17  18
ATOM     18  C   UNL     1      33.506 -15.273 -23.745  0.00  0.00    +0.003 C 
BRANCH  18  19
ATOM     19  C   UNL     1      32.975 -14.344 -22.682  0.00  0.00    -0.024 C 
ATOM     20  C   UNL     1      32.444 -13.118 -23.053  0.00  0.00    -0.001 C 
ATOM     21  C   UNL     1      33.029 -14.730 -21.352  0.00  0.00    -0.001 C 
ATOM     22  C   UNL     1      31.953 -12.258 -22.070  0.00  0.00    +0.036 C 
ATOM     23  C   UNL     1      32.538 -13.871 -20.368  0.00  0.00    +0.036 C 
ATOM     24  C   UNL     1      32.000 -12.635 -20.728  0.00  0.00    +0.134 C 
BRANCH  24  25
ATOM     25  O   UNL     1      31.520 -11.796 -19.769  0.00  0.00    -0.506 OA
ATOM     26  H   UNL     1      31.396 -12.107 -18.894  0.00  0.00    +0.292 HD
ENDBRANCH  24  25
ENDBRANCH  18  19
ENDBRANCH  17  18
ENDBRANCH   1  17
TORSDOF 9
ENDMDL
MODEL 2
REMARK VINA RESULT:      -9.0      3.466      8.162
REMARK  Name = 33572
REMARK  9 active torsions:
REMARK  status: ('A' for Active; 'I' for Inactive)
REMARK    1  A    between atoms: N_1  and  C_4
REMARK    2  A    between atoms: N_1  and  C_17
REMARK    3  A    between atoms: C_4  and  C_6
REMARK    4  A    between atoms: C_6  and  C_7
REMARK    5  A    between atoms: C_6  and  O_15
REMARK    6  A    between atoms: C_12  and  O_13
REMARK    7  A    between atoms: C_17  and  C_18
REMARK    8  A    between atoms: C_18  and  C_19
REMARK    9  A    between atoms: C_24  and  O_25
REMARK                            x       y       z     vdW  Elec       q    Type
REMARK                         _______ _______ _______ _____ _____    ______ ____
ROOT
ATOM      1  N   UNL     1      34.640 -20.916 -19.903  0.00  0.00    +0.387 N 
ATOM      2  H   UNL     1      35.080 -20.285 -19.234  0.00  0.00    -0.084 HD
ATOM      3  H   UNL     1      35.294 -21.649 -20.179  0.00  0.00    -0.084 HD
ENDROOT
BRANCH   1   4
ATOM      4  C   UNL     1      34.246 -20.157 -21.097  0.00  0.00    -0.030 C 
ATOM      5  C   UNL     1      32.990 -19.356 -20.754  0.00  0.00    -0.021 C 
BRANCH   4   6
ATOM      6  C   UNL     1      35.419 -19.258 -21.550  0.00  0.00    +0.113 C 
BRANCH   6   7
ATOM      7  C   UNL     1      35.101 -18.408 -22.761  0.00  0.00    +0.002 C 
ATOM      8  C   UNL     1      35.152 -17.029 -22.651  0.00  0.00    +0.001 C 
ATOM      9  C   UNL     1      34.763 -19.028 -23.951  0.00  0.00    +0.001 C 
ATOM     10  C   UNL     1      34.858 -16.246 -23.768  0.00  0.00    +0.036 C 
ATOM     11  C   UNL     1      34.468 -18.246 -25.067  0.00  0.00    +0.036 C 
ATOM     12  C   UNL     1      34.515 -16.854 -24.975  0.00  0.00    +0.134 C 
BRANCH  12  13
ATOM     13  O   UNL     1      34.229 -16.090 -26.064  0.00  0.00    -0.506 OA
ATOM     14  H   UNL     1      34.207 -16.479 -26.917  0.00  0.00    +0.292 HD
ENDBRANCH  12  13
ENDBRANCH   6   7
BRANCH   6  15
ATOM     15  O   UNL     1      35.781 -18.359 -20.498  0.00  0.00    -0.382 OA
ATOM     16  H   UNL     1      36.505 -17.786 -20.797  0.00  0.00    +0.211 HD
ENDBRANCH   6  15
ENDBRANCH   4   6
ENDBRANCH   1   4
BRANCH   1  17
ATOM     17  C   UNL     1      33.478 -21.531 -19.285  0.00  0.00    -0.077 C 
BRANCH  17  18
ATOM     18  C   UNL     1      33.808 -22.934 -18.774  0.00  0.00    +0.003 C 
BRANCH  18  19
ATOM     19  C   UNL     1      33.512 -23.070 -17.302  0.00  0.00    -0.024 C 
ATOM     20  C   UNL     1      32.193 -23.111 -16.874  0.00  0.00    -0.001 C 
ATOM     21  C   UNL     1      34.562 -23.149 -16.401  0.00  0.00    -0.001 C 
ATOM     22  C   UNL     1      31.918 -23.237 -15.512  0.00  0.00    +0.036 C 
ATOM     23  C   UNL     1      34.288 -23.275 -15.038  0.00  0.00    +0.036 C 
ATOM     24  C   UNL     1      32.966 -23.318 -14.595  0.00  0.00    +0.134 C 
BRANCH  24  25
ATOM     25  O   UNL     1      32.697 -23.441 -13.265  0.00  0.00    -0.506 OA
ATOM     26  H   UNL     1      32.715 -22.686 -12.712  0.00  0.00    +0.292 HD
ENDBRANCH  24  25
ENDBRANCH  18  19
ENDBRANCH  17  18
ENDBRANCH   1  17
TORSDOF 9
ENDMDL
MODEL 3
REMARK VINA RESULT:      -8.9      2.409      7.526
REMARK  Name = 33572
REMARK  9 active torsions:
REMARK  status: ('A' for Active; 'I' for Inactive)
REMARK    1  A    between atoms: N_1  and  C_4
REMARK    2  A    between atoms: N_1  and  C_17
REMARK    3  A    between atoms: C_4  and  C_6
REMARK    4  A    between atoms: C_6  and  C_7
REMARK    5  A    between atoms: C_6  and  O_15
REMARK    6  A    between atoms: C_12  and  O_13
REMARK    7  A    between atoms: C_17  and  C_18
REMARK    8  A    between atoms: C_18  and  C_19
REMARK    9  A    between atoms: C_24  and  O_25
REMARK                            x       y       z     vdW  Elec       q    Type
REMARK                         _______ _______ _______ _____ _____    ______ ____
ROOT
ATOM      1  N   UNL     1      34.914 -16.277 -21.753  0.00  0.00    +0.387 N 
ATOM      2  H   UNL     1      35.048 -16.446 -20.756  0.00  0.00    -0.084 HD
ATOM      3  H   UNL     1      35.630 -15.640 -22.101  0.00  0.00    -0.084 HD
ENDROOT
BRANCH   1   4
ATOM      4  C   UNL     1      33.594 -15.670 -21.967  0.00  0.00    -0.030 C 
ATOM      5  C   UNL     1      32.767 -15.877 -20.697  0.00  0.00    -0.021 C 
BRANCH   4   6
ATOM      6  C   UNL     1      33.762 -14.177 -22.329  0.00  0.00    +0.113 C 
BRANCH   6   7
ATOM      7  C   UNL     1      33.610 -13.889 -23.807  0.00  0.00    +0.002 C 
ATOM      8  C   UNL     1      33.348 -14.935 -24.675  0.00  0.00    +0.001 C 
ATOM      9  C   UNL     1      33.738 -12.587 -24.259  0.00  0.00    +0.001 C 
ATOM     10  C   UNL     1      33.208 -14.669 -26.038  0.00  0.00    +0.036 C 
ATOM     11  C   UNL     1      33.599 -12.322 -25.620  0.00  0.00    +0.036 C 
ATOM     12  C   UNL     1      33.335 -13.364 -26.510  0.00  0.00    +0.134 C 
BRANCH  12  13
ATOM     13  O   UNL     1      33.198 -13.105 -27.840  0.00  0.00    -0.506 OA
ATOM     14  H   UNL     1      32.473 -13.463 -28.314  0.00  0.00    +0.292 HD
ENDBRANCH  12  13
ENDBRANCH   6   7
BRANCH   6  15
ATOM     15  O   UNL     1      32.775 -13.394 -21.652  0.00  0.00    -0.382 OA
ATOM     16  H   UNL     1      32.221 -12.938 -22.305  0.00  0.00    +0.211 HD
ENDBRANCH   6  15
ENDBRANCH   4   6
ENDBRANCH   1   4
BRANCH   1  17
ATOM     17  C   UNL     1      35.017 -17.536 -22.469  0.00  0.00    -0.077 C 
BRANCH  17  18
ATOM     18  C   UNL     1      35.901 -18.526 -21.710  0.00  0.00    +0.003 C 
BRANCH  18  19
ATOM     19  C   UNL     1      35.077 -19.540 -20.958  0.00  0.00    -0.024 C 
ATOM     20  C   UNL     1      35.716 -20.536 -20.234  0.00  0.00    -0.001 C 
ATOM     21  C   UNL     1      33.693 -19.461 -21.004  0.00  0.00    -0.001 C 
ATOM     22  C   UNL     1      34.953 -21.474 -19.539  0.00  0.00    +0.036 C 
ATOM     23  C   UNL     1      32.930 -20.399 -20.309  0.00  0.00    +0.036 C 
ATOM     24  C   UNL     1      33.561 -21.406 -19.577  0.00  0.00    +0.134 C 
BRANCH  24  25
ATOM     25  O   UNL     1      32.816 -22.322 -18.897  0.00  0.00    -0.506 OA
ATOM     26  H   UNL     1      32.622 -22.188 -17.991  0.00  0.00    +0.292 HD
ENDBRANCH  24  25
ENDBRANCH  18  19
ENDBRANCH  17  18
ENDBRANCH   1  17
TORSDOF 9
ENDMDL
MODEL 4
REMARK VINA RESULT:      -8.9      1.127      1.785
REMARK  Name = 33572
REMARK  9 active torsions:
REMARK  status: ('A' for Active; 'I' for Inactive)
REMARK    1  A    between atoms: N_1  and  C_4
REMARK    2  A    between atoms: N_1  and  C_17
REMARK    3  A    between atoms: C_4  and  C_6
REMARK    4  A    between atoms: C_6  and  C_7
REMARK    5  A    between atoms: C_6  and  O_15
REMARK    6  A    between atoms: C_12  and  O_13
REMARK    7  A    between atoms: C_17  and  C_18
REMARK    8  A    between atoms: C_18  and  C_19
REMARK    9  A    between atoms: C_24  and  O_25
REMARK                            x       y       z     vdW  Elec       q    Type
REMARK                         _______ _______ _______ _____ _____    ______ ____
ROOT
ATOM      1  N   UNL     1      35.381 -16.609 -23.666  0.00  0.00    +0.387 N 
ATOM      2  H   UNL     1      35.234 -16.591 -24.676  0.00  0.00    -0.084 HD
ATOM      3  H   UNL     1      36.379 -16.588 -23.456  0.00  0.00    -0.084 HD
ENDROOT
BRANCH   1   4
ATOM      4  C   UNL     1      34.805 -17.842 -23.114  0.00  0.00    -0.030 C 
ATOM      5  C   UNL     1      34.993 -18.954 -24.147  0.00  0.00    -0.021 C 
BRANCH   4   6
ATOM      6  C   UNL     1      35.478 -18.168 -21.761  0.00  0.00    +0.113 C 
BRANCH   6   7
ATOM      7  C   UNL     1      34.808 -19.296 -21.006  0.00  0.00    +0.002 C 
ATOM      8  C   UNL     1      33.428 -19.316 -20.907  0.00  0.00    +0.001 C 
ATOM      9  C   UNL     1      35.592 -20.282 -20.431  0.00  0.00    +0.001 C 
ATOM     10  C   UNL     1      32.811 -20.356 -20.210  0.00  0.00    +0.036 C 
ATOM     11  C   UNL     1      34.975 -21.321 -19.734  0.00  0.00    +0.036 C 
ATOM     12  C   UNL     1      33.585 -21.357 -19.624  0.00  0.00    +0.134 C 
BRANCH  12  13
ATOM     13  O   UNL     1      32.983 -22.372 -18.945  0.00  0.00    -0.506 OA
ATOM     14  H   UNL     1      32.916 -22.336 -18.011  0.00  0.00    +0.292 HD
ENDBRANCH  12  13
ENDBRANCH   6   7
BRANCH   6  15
ATOM     15  O   UNL     1      36.836 -18.561 -21.972  0.00  0.00    -0.382 OA
ATOM     16  H   UNL     1      37.289 -17.888 -22.505  0.00  0.00    +0.211 HD
ENDBRANCH   6  15
ENDBRANCH   4   6
ENDBRANCH   1   4
BRANCH   1  17
ATOM     17  C   UNL     1      34.752 -15.442 -23.072  0.00  0.00    -0.077 C 
BRANCH  17  18
ATOM     18  C   UNL     1      33.642 -14.901 -23.973  0.00  0.00    +0.003 C 
BRANCH  18  19
ATOM     19  C   UNL     1      33.233 -13.506 -23.570  0.00  0.00    -0.024 C 
ATOM     20  C   UNL     1      33.775 -12.418 -24.237  0.00  0.00    -0.001 C 
ATOM     21  C   UNL     1      32.324 -13.336 -22.538  0.00  0.00    -0.001 C 
ATOM     22  C   UNL     1      33.396 -11.128 -23.864  0.00  0.00    +0.036 C 
ATOM     23  C   UNL     1      31.946 -12.046 -22.163  0.00  0.00    +0.036 C 
ATOM     24  C   UNL     1      32.482 -10.943 -22.827  0.00  0.00    +0.134 C 
BRANCH  24  25
ATOM     25  O   UNL     1      32.113  -9.683 -22.463  0.00  0.00    -0.506 OA
ATOM     26  H   UNL     1      32.761  -9.069 -22.181  0.00  0.00    +0.292 HD
ENDBRANCH  24  25
ENDBRANCH  18  19
ENDBRANCH  17  18
ENDBRANCH   1  17
TORSDOF 9
ENDMDL
MODEL 5
REMARK VINA RESULT:      -8.8      5.217      8.562
REMARK  Name = 33572
REMARK  9 active torsions:
REMARK  status: ('A' for Active; 'I' for Inactive)
REMARK    1  A    between atoms: N_1  and  C_4
REMARK    2  A    between atoms: N_1  and  C_17
REMARK    3  A    between atoms: C_4  and  C_6
REMARK    4  A    between atoms: C_6  and  C_7
REMARK    5  A    between atoms: C_6  and  O_15
REMARK    6  A    between atoms: C_12  and  O_13
REMARK    7  A    between atoms: C_17  and  C_18
REMARK    8  A    between atoms: C_18  and  C_19
REMARK    9  A    between atoms: C_24  and  O_25
REMARK                            x       y       z     vdW  Elec       q    Type
REMARK                         _______ _______ _______ _____ _____    ______ ____
ROOT
ATOM      1  N   UNL     1      32.397 -23.690 -16.475  0.00  0.00    +0.387 N 
ATOM      2  H   UNL     1      31.457 -24.082 -16.521  0.00  0.00    -0.084 HD
ATOM      3  H   UNL     1      33.092 -24.430 -16.577  0.00  0.00    -0.084 HD
ENDROOT
BRANCH   1   4
ATOM      4  C   UNL     1      32.586 -23.039 -15.172  0.00  0.00    -0.030 C 
ATOM      5  C   UNL     1      31.205 -22.815 -14.552  0.00  0.00    -0.021 C 
BRANCH   4   6
ATOM      6  C   UNL     1      33.501 -23.912 -14.283  0.00  0.00    +0.113 C 
BRANCH   6   7
ATOM      7  C   UNL     1      34.961 -23.858 -14.678  0.00  0.00    +0.002 C 
ATOM      8  C   UNL     1      35.482 -22.677 -15.181  0.00  0.00    +0.001 C 
ATOM      9  C   UNL     1      35.744 -24.990 -14.528  0.00  0.00    +0.001 C 
ATOM     10  C   UNL     1      36.828 -22.628 -15.545  0.00  0.00    +0.036 C 
ATOM     11  C   UNL     1      37.089 -24.941 -14.893  0.00  0.00    +0.036 C 
ATOM     12  C   UNL     1      37.630 -23.760 -15.401  0.00  0.00    +0.134 C 
BRANCH  12  13
ATOM     13  O   UNL     1      38.944 -23.711 -15.756  0.00  0.00    -0.506 OA
ATOM     14  H   UNL     1      39.231 -24.126 -16.545  0.00  0.00    +0.292 HD
ENDBRANCH  12  13
ENDBRANCH   6   7
BRANCH   6  15
ATOM     15  O   UNL     1      33.424 -23.476 -12.924  0.00  0.00    -0.382 OA
ATOM     16  H   UNL     1      33.415 -22.506 -12.895  0.00  0.00    +0.211 HD
ENDBRANCH   6  15
ENDBRANCH   4   6
ENDBRANCH   1   4
BRANCH   1  17
ATOM     17  C   UNL     1      32.569 -22.732 -17.553  0.00  0.00    -0.077 C 
BRANCH  17  18
ATOM     18  C   UNL     1      33.807 -23.063 -18.387  0.00  0.00    +0.003 C 
BRANCH  18  19
ATOM     19  C   UNL     1      34.223 -21.896 -19.246  0.00  0.00    -0.024 C 
ATOM     20  C   UNL     1      33.250 -21.077 -19.800  0.00  0.00    -0.001 C 
ATOM     21  C   UNL     1      35.571 -21.662 -19.470  0.00  0.00    -0.001 C 
ATOM     22  C   UNL     1      33.635 -19.997 -20.595  0.00  0.00    +0.036 C 
ATOM     23  C   UNL     1      35.956 -20.582 -20.265  0.00  0.00    +0.036 C 
ATOM     24  C   UNL     1      34.987 -19.750 -20.827  0.00  0.00    +0.134 C 
BRANCH  24  25
ATOM     25  O   UNL     1      35.363 -18.696 -21.604  0.00  0.00    -0.506 OA
ATOM     26  H   UNL     1      34.848 -17.913 -21.610  0.00  0.00    +0.292 HD
ENDBRANCH  24  25
ENDBRANCH  18  19
ENDBRANCH  17  18
ENDBRANCH   1  17
TORSDOF 9
ENDMDL
MODEL 6
REMARK VINA RESULT:      -8.8      3.308      8.193
REMARK  Name = 33572
REMARK  9 active torsions:
REMARK  status: ('A' for Active; 'I' for Inactive)
REMARK    1  A    between atoms: N_1  and  C_4
REMARK    2  A    between atoms: N_1  and  C_17
REMARK    3  A    between atoms: C_4  and  C_6
REMARK    4  A    between atoms: C_6  and  C_7
REMARK    5  A    between atoms: C_6  and  O_15
REMARK    6  A    between atoms: C_12  and  O_13
REMARK    7  A    between atoms: C_17  and  C_18
REMARK    8  A    between atoms: C_18  and  C_19
REMARK    9  A    between atoms: C_24  and  O_25
REMARK                            x       y       z     vdW  Elec       q    Type
REMARK                         _______ _______ _______ _____ _____    ______ ____
ROOT
ATOM      1  N   UNL     1      35.654 -20.218 -19.963  0.00  0.00    +0.387 N 
ATOM      2  H   UNL     1      35.172 -19.817 -19.158  0.00  0.00    -0.084 HD
ATOM      3  H   UNL     1      36.642 -19.968 -19.942  0.00  0.00    -0.084 HD
ENDROOT
BRANCH   1   4
ATOM      4  C   UNL     1      35.056 -19.690 -21.197  0.00  0.00    -0.030 C 
ATOM      5  C   UNL     1      33.545 -19.588 -20.983  0.00  0.00    -0.021 C 
BRANCH   4   6
ATOM      6  C   UNL     1      35.701 -18.328 -21.543  0.00  0.00    +0.113 C 
BRANCH   6   7
ATOM      7  C   UNL     1      35.165 -17.709 -22.817  0.00  0.00    +0.002 C 
ATOM      8  C   UNL     1      35.036 -18.497 -23.947  0.00  0.00    +0.001 C 
ATOM      9  C   UNL     1      34.820 -16.369 -22.823  0.00  0.00    +0.001 C 
ATOM     10  C   UNL     1      34.543 -17.926 -25.121  0.00  0.00    +0.036 C 
ATOM     11  C   UNL     1      34.328 -15.798 -23.996  0.00  0.00    +0.036 C 
ATOM     12  C   UNL     1      34.191 -16.577 -25.146  0.00  0.00    +0.134 C 
BRANCH  12  13
ATOM     13  O   UNL     1      33.709 -16.021 -26.291  0.00  0.00    -0.506 OA
ATOM     14  H   UNL     1      33.853 -16.445 -27.114  0.00  0.00    +0.292 HD
ENDBRANCH  12  13
ENDBRANCH   6   7
BRANCH   6  15
ATOM     15  O   UNL     1      35.455 -17.389 -20.493  0.00  0.00    -0.382 OA
ATOM     16  H   UNL     1      34.884 -17.796 -19.822  0.00  0.00    +0.211 HD
ENDBRANCH   6  15
ENDBRANCH   4   6
ENDBRANCH   1   4
BRANCH   1  17
ATOM     17  C   UNL     1      35.534 -21.665 -19.919  0.00  0.00    -0.077 C 
BRANCH  17  18
ATOM     18  C   UNL     1      34.641 -22.104 -18.758  0.00  0.00    +0.003 C 
BRANCH  18  19
ATOM     19  C   UNL     1      35.447 -22.379 -17.513  0.00  0.00    -0.024 C 
ATOM     20  C   UNL     1      34.855 -23.046 -16.451  0.00  0.00    -0.001 C 
ATOM     21  C   UNL     1      36.767 -21.960 -17.451  0.00  0.00    -0.001 C 
ATOM     22  C   UNL     1      35.601 -23.300 -15.300  0.00  0.00    +0.036 C 
ATOM     23  C   UNL     1      37.513 -22.213 -16.300  0.00  0.00    +0.036 C 
ATOM     24  C   UNL     1      36.930 -22.884 -15.225  0.00  0.00    +0.134 C 
BRANCH  24  25
ATOM     25  O   UNL     1      37.657 -23.132 -14.101  0.00  0.00    -0.506 OA
ATOM     26  H   UNL     1      37.225 -23.233 -13.277  0.00  0.00    +0.292 HD
ENDBRANCH  24  25
ENDBRANCH  18  19
ENDBRANCH  17  18
ENDBRANCH   1  17
TORSDOF 9
ENDMDL
MODEL 7
REMARK VINA RESULT:      -8.6      2.373      3.097
REMARK  Name = 33572
REMARK  9 active torsions:
REMARK  status: ('A' for Active; 'I' for Inactive)
REMARK    1  A    between atoms: N_1  and  C_4
REMARK    2  A    between atoms: N_1  and  C_17
REMARK    3  A    between atoms: C_4  and  C_6
REMARK    4  A    between atoms: C_6  and  C_7
REMARK    5  A    between atoms: C_6  and  O_15
REMARK    6  A    between atoms: C_12  and  O_13
REMARK    7  A    between atoms: C_17  and  C_18
REMARK    8  A    between atoms: C_18  and  C_19
REMARK    9  A    between atoms: C_24  and  O_25
REMARK                            x       y       z     vdW  Elec       q    Type
REMARK                         _______ _______ _______ _____ _____    ______ ____
ROOT
ATOM      1  N   UNL     1      35.182 -16.503 -22.677  0.00  0.00    +0.387 N 
ATOM      2  H   UNL     1      35.405 -16.331 -23.658  0.00  0.00    -0.084 HD
ATOM      3  H   UNL     1      35.969 -16.237 -22.085  0.00  0.00    -0.084 HD
ENDROOT
BRANCH   1   4
ATOM      4  C   UNL     1      34.908 -17.934 -22.488  0.00  0.00    -0.030 C 
ATOM      5  C   UNL     1      35.284 -18.661 -23.779  0.00  0.00    -0.021 C 
BRANCH   4   6
ATOM      6  C   UNL     1      35.695 -18.454 -21.263  0.00  0.00    +0.113 C 
BRANCH   6   7
ATOM      7  C   UNL     1      35.098 -19.698 -20.641  0.00  0.00    +0.002 C 
ATOM      8  C   UNL     1      35.941 -20.669 -20.129  0.00  0.00    +0.001 C 
ATOM      9  C   UNL     1      33.721 -19.838 -20.599  0.00  0.00    +0.001 C 
ATOM     10  C   UNL     1      35.389 -21.815 -19.556  0.00  0.00    +0.036 C 
ATOM     11  C   UNL     1      33.170 -20.984 -20.027  0.00  0.00    +0.036 C 
ATOM     12  C   UNL     1      34.005 -21.973 -19.506  0.00  0.00    +0.134 C 
BRANCH  12  13
ATOM     13  O   UNL     1      33.467 -23.092 -18.947  0.00  0.00    -0.506 OA
ATOM     14  H   UNL     1      33.772 -23.938 -19.207  0.00  0.00    +0.292 HD
ENDBRANCH  12  13
ENDBRANCH   6   7
BRANCH   6  15
ATOM     15  O   UNL     1      37.033 -18.785 -21.644  0.00  0.00    -0.382 OA
ATOM     16  H   UNL     1      37.296 -18.244 -22.406  0.00  0.00    +0.211 HD
ENDBRANCH   6  15
ENDBRANCH   4   6
ENDBRANCH   1   4
BRANCH   1  17
ATOM     17  C   UNL     1      34.024 -15.710 -22.304  0.00  0.00    -0.077 C 
BRANCH  17  18
ATOM     18  C   UNL     1      34.247 -14.232 -22.624  0.00  0.00    +0.003 C 
BRANCH  18  19
ATOM     19  C   UNL     1      33.820 -13.900 -24.031  0.00  0.00    -0.024 C 
ATOM     20  C   UNL     1      33.358 -14.912 -24.859  0.00  0.00    -0.001 C 
ATOM     21  C   UNL     1      33.897 -12.588 -24.474  0.00  0.00    -0.001 C 
ATOM     22  C   UNL     1      32.963 -14.605 -26.161  0.00  0.00    +0.036 C 
ATOM     23  C   UNL     1      33.502 -12.281 -25.776  0.00  0.00    +0.036 C 
ATOM     24  C   UNL     1      33.035 -13.289 -26.619  0.00  0.00    +0.134 C 
BRANCH  24  25
ATOM     25  O   UNL     1      32.649 -12.990 -27.891  0.00  0.00    -0.506 OA
ATOM     26  H   UNL     1      31.968 -13.484 -28.302  0.00  0.00    +0.292 HD
ENDBRANCH  24  25
ENDBRANCH  18  19
ENDBRANCH  17  18
ENDBRANCH   1  17
TORSDOF 9
ENDMDL
MODEL 8
REMARK VINA RESULT:      -8.5      2.678      4.394
REMARK  Name = 33572
REMARK  9 active torsions:
REMARK  status: ('A' for Active; 'I' for Inactive)
REMARK    1  A    between atoms: N_1  and  C_4
REMARK    2  A    between atoms: N_1  and  C_17
REMARK    3  A    between atoms: C_4  and  C_6
REMARK    4  A    between atoms: C_6  and  C_7
REMARK    5  A    between atoms: C_6  and  O_15
REMARK    6  A    between atoms: C_12  and  O_13
REMARK    7  A    between atoms: C_17  and  C_18
REMARK    8  A    between atoms: C_18  and  C_19
REMARK    9  A    between atoms: C_24  and  O_25
REMARK                            x       y       z     vdW  Elec       q    Type
REMARK                         _______ _______ _______ _____ _____    ______ ____
ROOT
ATOM      1  N   UNL     1      35.386 -20.337 -21.065  0.00  0.00    +0.387 N 
ATOM      2  H   UNL     1      34.953 -20.437 -21.983  0.00  0.00    -0.084 HD
ATOM      3  H   UNL     1      36.097 -21.055 -20.931  0.00  0.00    -0.084 HD
ENDROOT
BRANCH   1   4
ATOM      4  C   UNL     1      34.358 -20.486 -20.027  0.00  0.00    -0.030 C 
ATOM      5  C   UNL     1      33.016 -20.063 -20.626  0.00  0.00    -0.021 C 
BRANCH   4   6
ATOM      6  C   UNL     1      34.347 -21.945 -19.515  0.00  0.00    +0.113 C 
BRANCH   6   7
ATOM      7  C   UNL     1      35.165 -22.155 -18.259  0.00  0.00    +0.002 C 
ATOM      8  C   UNL     1      36.462 -21.673 -18.210  0.00  0.00    +0.001 C 
ATOM      9  C   UNL     1      34.600 -22.825 -17.189  0.00  0.00    +0.001 C 
ATOM     10  C   UNL     1      37.217 -21.868 -17.053  0.00  0.00    +0.036 C 
ATOM     11  C   UNL     1      35.354 -23.020 -16.032  0.00  0.00    +0.036 C 
ATOM     12  C   UNL     1      36.663 -22.541 -15.965  0.00  0.00    +0.134 C 
BRANCH  12  13
ATOM     13  O   UNL     1      37.399 -22.730 -14.835  0.00  0.00    -0.506 OA
ATOM     14  H   UNL     1      37.204 -22.239 -14.061  0.00  0.00    +0.292 HD
ENDBRANCH  12  13
ENDBRANCH   6   7
BRANCH   6  15
ATOM     15  O   UNL     1      33.009 -22.346 -19.208  0.00  0.00    -0.382 OA
ATOM     16  H   UNL     1      32.555 -22.611 -20.024  0.00  0.00    +0.211 HD
ENDBRANCH   6  15
ENDBRANCH   4   6
ENDBRANCH   1   4
BRANCH   1  17
ATOM     17  C   UNL     1      36.014 -19.030 -20.975  0.00  0.00    -0.077 C 
BRANCH  17  18
ATOM     18  C   UNL     1      35.987 -18.316 -22.326  0.00  0.00    +0.003 C 
BRANCH  18  19
ATOM     19  C   UNL     1      35.215 -17.023 -22.253  0.00  0.00    -0.024 C 
ATOM     20  C   UNL     1      34.707 -16.600 -21.033  0.00  0.00    -0.001 C 
ATOM     21  C   UNL     1      35.024 -16.278 -23.406  0.00  0.00    -0.001 C 
ATOM     22  C   UNL     1      33.993 -15.404 -20.965  0.00  0.00    +0.036 C 
ATOM     23  C   UNL     1      34.309 -15.082 -23.339  0.00  0.00    +0.036 C 
ATOM     24  C   UNL     1      33.794 -14.646 -22.118  0.00  0.00    +0.134 C 
BRANCH  24  25
ATOM     25  O   UNL     1      33.097 -13.477 -22.051  0.00  0.00    -0.506 OA
ATOM     26  H   UNL     1      33.552 -12.666 -21.945  0.00  0.00    +0.292 HD
ENDBRANCH  24  25
ENDBRANCH  18  19
ENDBRANCH  17  18
ENDBRANCH   1  17
TORSDOF 9
ENDMDL
MODEL 9
REMARK VINA RESULT:      -8.5      2.089      3.431
REMARK  Name = 33572
REMARK  9 active torsions:
REMARK  status: ('A' for Active; 'I' for Inactive)
REMARK    1  A    between atoms: N_1  and  C_4
REMARK    2  A    between atoms: N_1  and  C_17
REMARK    3  A    between atoms: C_4  and  C_6
REMARK    4  A    between atoms: C_6  and  C_7
REMARK    5  A    between atoms: C_6  and  O_15
REMARK    6  A    between atoms: C_12  and  O_13
REMARK    7  A    between atoms: C_17  and  C_18
REMARK    8  A    between atoms: C_18  and  C_19
REMARK    9  A    between atoms: C_24  and  O_25
REMARK                            x       y       z     vdW  Elec       q    Type
REMARK                         _______ _______ _______ _____ _____    ______ ____
ROOT
ATOM      1  N   UNL     1      34.036 -13.926 -23.638  0.00  0.00    +0.387 N 
ATOM      2  H   UNL     1      34.873 -13.530 -24.066  0.00  0.00    -0.084 HD
ATOM      3  H   UNL     1      34.227 -14.196 -22.674  0.00  0.00    -0.084 HD
ENDROOT
BRANCH   1   4
ATOM      4  C   UNL     1      33.624 -15.117 -24.392  0.00  0.00    -0.030 C 
ATOM      5  C   UNL     1      33.088 -14.656 -25.749  0.00  0.00    -0.021 C 
BRANCH   4   6
ATOM      6  C   UNL     1      34.822 -16.085 -24.525  0.00  0.00    +0.113 C 
BRANCH   6   7
ATOM      7  C   UNL     1      34.909 -17.102 -23.407  0.00  0.00    +0.002 C 
ATOM      8  C   UNL     1      34.790 -18.448 -23.707  0.00  0.00    +0.001 C 
ATOM      9  C   UNL     1      35.102 -16.663 -22.109  0.00  0.00    +0.001 C 
ATOM     10  C   UNL     1      34.869 -19.384 -22.676  0.00  0.00    +0.036 C 
ATOM     11  C   UNL     1      35.180 -17.599 -21.078  0.00  0.00    +0.036 C 
ATOM     12  C   UNL     1      35.063 -18.960 -21.362  0.00  0.00    +0.134 C 
BRANCH  12  13
ATOM     13  O   UNL     1      35.141 -19.874 -20.356  0.00  0.00    -0.506 OA
ATOM     14  H   UNL     1      35.169 -19.588 -19.465  0.00  0.00    +0.292 HD
ENDBRANCH  12  13
ENDBRANCH   6   7
BRANCH   6  15
ATOM     15  O   UNL     1      34.723 -16.822 -25.746  0.00  0.00    -0.382 OA
ATOM     16  H   UNL     1      35.602 -17.147 -26.000  0.00  0.00    +0.211 HD
ENDBRANCH   6  15
ENDBRANCH   4   6
ENDBRANCH   1   4
BRANCH   1  17
ATOM     17  C   UNL     1      32.979 -12.929 -23.647  0.00  0.00    -0.077 C 
BRANCH  17  18
ATOM     18  C   UNL     1      32.039 -13.117 -22.456  0.00  0.00    +0.003 C 
BRANCH  18  19
ATOM     19  C   UNL     1      31.964 -11.872 -21.609  0.00  0.00    -0.024 C 
ATOM     20  C   UNL     1      32.041 -10.628 -22.217  0.00  0.00    -0.001 C 
ATOM     21  C   UNL     1      31.820 -11.992 -20.235  0.00  0.00    -0.001 C 
ATOM     22  C   UNL     1      31.971  -9.476 -21.434  0.00  0.00    +0.036 C 
ATOM     23  C   UNL     1      31.751 -10.840 -19.451  0.00  0.00    +0.036 C 
ATOM     24  C   UNL     1      31.826  -9.583 -20.051  0.00  0.00    +0.134 C 
BRANCH  24  25
ATOM     25  O   UNL     1      31.758  -8.458 -19.286  0.00  0.00    -0.506 OA
ATOM     26  H   UNL     1      32.544  -8.029 -19.013  0.00  0.00    +0.292 HD
ENDBRANCH  24  25
ENDBRANCH  18  19
ENDBRANCH  17  18
ENDBRANCH   1  17
TORSDOF 9
ENDMDL
