MODEL 1
REMARK VINA RESULT:      -7.5      0.000      0.000
REMARK  Name = 378
REMARK  5 active torsions:
REMARK  status: ('A' for Active; 'I' for Inactive)
REMARK    1  A    between atoms: C_1  and  O_10
REMARK    2  A    between atoms: C_2  and  N_9
REMARK    3  A    between atoms: O_10  and  P_11
REMARK    4  A    between atoms: P_11  and  O_13
REMARK    5  A    between atoms: P_11  and  O_15
REMARK                            x       y       z     vdW  Elec       q    Type
REMARK                         _______ _______ _______ _____ _____    ______ ____
ROOT
ATOM      1  C   UNL     1      34.266 -19.259 -21.300  0.00  0.00    +0.149 C 
ATOM      2  C   UNL     1      34.433 -21.442 -19.571  0.00  0.00    +0.143 C 
ATOM      3  C   UNL     1      33.107 -19.790 -20.733  0.00  0.00    +0.039 C 
ATOM      4  C   UNL     1      35.508 -19.819 -21.002  0.00  0.00    +0.039 C 
ATOM      5  C   UNL     1      33.190 -20.882 -19.868  0.00  0.00    +0.027 C 
ATOM      6  C   UNL     1      35.591 -20.911 -20.138  0.00  0.00    +0.027 C 
ENDROOT
BRANCH   2   9
ATOM      7  O   UNL     1      33.752 -23.530 -18.867  0.00  0.00    -0.126 OA
ATOM      8  O   UNL     1      35.360 -22.526 -17.759  0.00  0.00    -0.126 OA
ATOM      9  N   UNL     1      34.519 -22.553 -18.690  0.00  0.00    +0.058 N 
ENDBRANCH   2   9
BRANCH   1  10
ATOM     10  O   UNL     1      34.183 -18.194 -22.144  0.00  0.00    -0.403 OA
BRANCH  10  11
ATOM     11  P   UNL     1      34.681 -16.692 -21.801  0.00  0.00    +0.528 P 
ATOM     12  O   UNL     1      35.214 -16.496 -20.411  0.00  0.00    -0.216 OA
BRANCH  11  13
ATOM     13  O   UNL     1      35.703 -16.331 -23.001  0.00  0.00    -0.293 OA
ATOM     14  H   UNL     1      36.353 -15.682 -22.689  0.00  0.00    +0.223 HD
ENDBRANCH  11  13
BRANCH  11  15
ATOM     15  O   UNL     1      33.380 -15.796 -22.151  0.00  0.00    -0.293 OA
ATOM     16  H   UNL     1      33.559 -14.868 -21.932  0.00  0.00    +0.223 HD
ENDBRANCH  11  15
ENDBRANCH  10  11
ENDBRANCH   1  10
TORSDOF 5
ENDMDL
MODEL 2
REMARK VINA RESULT:      -7.5      0.021      1.535
REMARK  Name = 378
REMARK  5 active torsions:
REMARK  status: ('A' for Active; 'I' for Inactive)
REMARK    1  A    between atoms: C_1  and  O_10
REMARK    2  A    between atoms: C_2  and  N_9
REMARK    3  A    between atoms: O_10  and  P_11
REMARK    4  A    between atoms: P_11  and  O_13
REMARK    5  A    between atoms: P_11  and  O_15
REMARK                            x       y       z     vdW  Elec       q    Type
REMARK                         _______ _______ _______ _____ _____    ______ ____
ROOT
ATOM      1  C   UNL     1      34.245 -19.256 -21.301  0.00  0.00    +0.149 C 
ATOM      2  C   UNL     1      34.425 -21.442 -19.577  0.00  0.00    +0.143 C 
ATOM      3  C   UNL     1      35.489 -19.817 -21.014  0.00  0.00    +0.039 C 
ATOM      4  C   UNL     1      33.090 -19.788 -20.727  0.00  0.00    +0.039 C 
ATOM      5  C   UNL     1      35.580 -20.910 -20.152  0.00  0.00    +0.027 C 
ATOM      6  C   UNL     1      33.181 -20.882 -19.866  0.00  0.00    +0.027 C 
ENDROOT
BRANCH   2   9
ATOM      7  O   UNL     1      35.354 -22.528 -17.767  0.00  0.00    -0.126 OA
ATOM      8  O   UNL     1      33.754 -23.537 -18.883  0.00  0.00    -0.126 OA
ATOM      9  N   UNL     1      34.515 -22.555 -18.700  0.00  0.00    +0.058 N 
ENDBRANCH   2   9
BRANCH   1  10
ATOM     10  O   UNL     1      34.158 -18.189 -22.143  0.00  0.00    -0.403 OA
BRANCH  10  11
ATOM     11  P   UNL     1      34.683 -16.694 -21.810  0.00  0.00    +0.528 P 
ATOM     12  O   UNL     1      35.212 -16.495 -20.420  0.00  0.00    -0.216 OA
BRANCH  11  13
ATOM     13  O   UNL     1      35.718 -16.363 -23.008  0.00  0.00    -0.293 OA
ATOM     14  H   UNL     1      35.847 -15.404 -23.069  0.00  0.00    +0.223 HD
ENDBRANCH  11  13
BRANCH  11  15
ATOM     15  O   UNL     1      33.401 -15.776 -22.176  0.00  0.00    -0.293 OA
ATOM     16  H   UNL     1      33.502 -14.902 -21.767  0.00  0.00    +0.223 HD
ENDBRANCH  11  15
ENDBRANCH  10  11
ENDBRANCH   1  10
TORSDOF 5
ENDMDL
MODEL 3
REMARK VINA RESULT:      -7.0      7.013      8.052
REMARK  Name = 378
REMARK  5 active torsions:
REMARK  status: ('A' for Active; 'I' for Inactive)
REMARK    1  A    between atoms: C_1  and  O_10
REMARK    2  A    between atoms: C_2  and  N_9
REMARK    3  A    between atoms: O_10  and  P_11
REMARK    4  A    between atoms: P_11  and  O_13
REMARK    5  A    between atoms: P_11  and  O_15
REMARK                            x       y       z     vdW  Elec       q    Type
REMARK                         _______ _______ _______ _____ _____    ______ ____
ROOT
ATOM      1  C   UNL     1      30.311 -22.694 -16.248  0.00  0.00    +0.149 C 
ATOM      2  C   UNL     1      32.492 -23.667 -14.805  0.00  0.00    +0.143 C 
ATOM      3  C   UNL     1      31.525 -22.932 -16.894  0.00  0.00    +0.039 C 
ATOM      4  C   UNL     1      30.187 -22.944 -14.881  0.00  0.00    +0.039 C 
ATOM      5  C   UNL     1      32.615 -23.419 -16.173  0.00  0.00    +0.027 C 
ATOM      6  C   UNL     1      31.278 -23.430 -14.160  0.00  0.00    +0.027 C 
ENDROOT
BRANCH   2   9
ATOM      7  O   UNL     1      34.626 -24.534 -14.692  0.00  0.00    -0.126 OA
ATOM      8  O   UNL     1      33.525 -24.217 -12.818  0.00  0.00    -0.126 OA
ATOM      9  N   UNL     1      33.601 -24.163 -14.070  0.00  0.00    +0.058 N 
ENDBRANCH   2   9
BRANCH   1  10
ATOM     10  O   UNL     1      29.247 -22.220 -16.954  0.00  0.00    -0.403 OA
BRANCH  10  11
ATOM     11  P   UNL     1      27.730 -22.770 -16.835  0.00  0.00    +0.528 P 
ATOM     12  O   UNL     1      27.079 -22.574 -15.497  0.00  0.00    -0.216 OA
BRANCH  11  13
ATOM     13  O   UNL     1      26.966 -22.098 -18.092  0.00  0.00    -0.293 OA
ATOM     14  H   UNL     1      27.597 -21.581 -18.616  0.00  0.00    +0.223 HD
ENDBRANCH  11  13
BRANCH  11  15
ATOM     15  O   UNL     1      27.876 -24.318 -17.286  0.00  0.00    -0.293 OA
ATOM     16  H   UNL     1      27.490 -24.891 -16.605  0.00  0.00    +0.223 HD
ENDBRANCH  11  15
ENDBRANCH  10  11
ENDBRANCH   1  10
TORSDOF 5
ENDMDL
MODEL 4
REMARK VINA RESULT:      -7.0      3.703      4.710
REMARK  Name = 378
REMARK  5 active torsions:
REMARK  status: ('A' for Active; 'I' for Inactive)
REMARK    1  A    between atoms: C_1  and  O_10
REMARK    2  A    between atoms: C_2  and  N_9
REMARK    3  A    between atoms: O_10  and  P_11
REMARK    4  A    between atoms: P_11  and  O_13
REMARK    5  A    between atoms: P_11  and  O_15
REMARK                            x       y       z     vdW  Elec       q    Type
REMARK                         _______ _______ _______ _____ _____    ______ ____
ROOT
ATOM      1  C   UNL     1      34.648 -16.801 -24.808  0.00  0.00    +0.149 C 
ATOM      2  C   UNL     1      35.041 -18.325 -22.504  0.00  0.00    +0.143 C 
ATOM      3  C   UNL     1      35.010 -16.179 -23.613  0.00  0.00    +0.039 C 
ATOM      4  C   UNL     1      34.484 -18.186 -24.851  0.00  0.00    +0.039 C 
ATOM      5  C   UNL     1      35.206 -16.940 -22.461  0.00  0.00    +0.027 C 
ATOM      6  C   UNL     1      34.681 -18.947 -23.699  0.00  0.00    +0.027 C 
ENDROOT
BRANCH   2   9
ATOM      7  O   UNL     1      34.395 -19.978 -21.032  0.00  0.00    -0.126 OA
ATOM      8  O   UNL     1      36.258 -18.888 -20.628  0.00  0.00    -0.126 OA
ATOM      9  N   UNL     1      35.241 -19.101 -21.332  0.00  0.00    +0.058 N 
ENDBRANCH   2   9
BRANCH   1  10
ATOM     10  O   UNL     1      34.458 -16.057 -25.932  0.00  0.00    -0.403 OA
BRANCH  10  11
ATOM     11  P   UNL     1      33.220 -15.043 -26.179  0.00  0.00    +0.528 P 
ATOM     12  O   UNL     1      32.734 -14.315 -24.960  0.00  0.00    -0.216 OA
BRANCH  11  13
ATOM     13  O   UNL     1      33.714 -14.108 -27.403  0.00  0.00    -0.293 OA
ATOM     14  H   UNL     1      33.147 -14.259 -28.175  0.00  0.00    +0.223 HD
ENDBRANCH  11  13
BRANCH  11  15
ATOM     15  O   UNL     1      32.112 -15.995 -26.875  0.00  0.00    -0.293 OA
ATOM     16  H   UNL     1      31.228 -15.625 -26.726  0.00  0.00    +0.223 HD
ENDBRANCH  11  15
ENDBRANCH  10  11
ENDBRANCH   1  10
TORSDOF 5
ENDMDL
MODEL 5
REMARK VINA RESULT:      -6.8      6.353      9.118
REMARK  Name = 378
REMARK  5 active torsions:
REMARK  status: ('A' for Active; 'I' for Inactive)
REMARK    1  A    between atoms: C_1  and  O_10
REMARK    2  A    between atoms: C_2  and  N_9
REMARK    3  A    between atoms: O_10  and  P_11
REMARK    4  A    between atoms: P_11  and  O_13
REMARK    5  A    between atoms: P_11  and  O_15
REMARK                            x       y       z     vdW  Elec       q    Type
REMARK                         _______ _______ _______ _____ _____    ______ ____
ROOT
ATOM      1  C   UNL     1      34.085 -24.126 -13.574  0.00  0.00    +0.149 C 
ATOM      2  C   UNL     1      33.684 -23.365 -16.228  0.00  0.00    +0.143 C 
ATOM      3  C   UNL     1      32.796 -23.861 -14.037  0.00  0.00    +0.039 C 
ATOM      4  C   UNL     1      35.174 -24.012 -14.438  0.00  0.00    +0.039 C 
ATOM      5  C   UNL     1      32.595 -23.480 -15.364  0.00  0.00    +0.027 C 
ATOM      6  C   UNL     1      34.973 -23.632 -15.765  0.00  0.00    +0.027 C 
ENDROOT
BRANCH   2   9
ATOM      7  O   UNL     1      32.339 -22.610 -17.941  0.00  0.00    -0.126 OA
ATOM      8  O   UNL     1      34.452 -23.018 -18.375  0.00  0.00    -0.126 OA
ATOM      9  N   UNL     1      33.482 -22.979 -17.580  0.00  0.00    +0.058 N 
ENDBRANCH   2   9
BRANCH   1  10
ATOM     10  O   UNL     1      34.279 -24.498 -12.278  0.00  0.00    -0.403 OA
BRANCH  10  11
ATOM     11  P   UNL     1      35.695 -24.442 -11.495  0.00  0.00    +0.528 P 
ATOM     12  O   UNL     1      36.501 -23.196 -11.715  0.00  0.00    -0.216 OA
BRANCH  11  13
ATOM     13  O   UNL     1      35.308 -24.765  -9.958  0.00  0.00    -0.293 OA
ATOM     14  H   UNL     1      34.799 -24.026  -9.590  0.00  0.00    +0.223 HD
ENDBRANCH  11  13
BRANCH  11  15
ATOM     15  O   UNL     1      36.423 -25.805 -11.978  0.00  0.00    -0.293 OA
ATOM     16  H   UNL     1      37.355 -25.785 -11.711  0.00  0.00    +0.223 HD
ENDBRANCH  11  15
ENDBRANCH  10  11
ENDBRANCH   1  10
TORSDOF 5
ENDMDL
MODEL 6
REMARK VINA RESULT:      -6.8      8.073      9.292
REMARK  Name = 378
REMARK  5 active torsions:
REMARK  status: ('A' for Active; 'I' for Inactive)
REMARK    1  A    between atoms: C_1  and  O_10
REMARK    2  A    between atoms: C_2  and  N_9
REMARK    3  A    between atoms: O_10  and  P_11
REMARK    4  A    between atoms: P_11  and  O_13
REMARK    5  A    between atoms: P_11  and  O_15
REMARK                            x       y       z     vdW  Elec       q    Type
REMARK                         _______ _______ _______ _____ _____    ______ ____
ROOT
ATOM      1  C   UNL     1      36.080 -25.014 -14.910  0.00  0.00    +0.149 C 
ATOM      2  C   UNL     1      38.839 -25.390 -14.734  0.00  0.00    +0.143 C 
ATOM      3  C   UNL     1      36.600 -26.297 -14.739  0.00  0.00    +0.039 C 
ATOM      4  C   UNL     1      36.940 -23.918 -14.992  0.00  0.00    +0.039 C 
ATOM      5  C   UNL     1      37.979 -26.486 -14.651  0.00  0.00    +0.027 C 
ATOM      6  C   UNL     1      38.319 -24.107 -14.904  0.00  0.00    +0.027 C 
ENDROOT
BRANCH   2   9
ATOM      7  O   UNL     1      40.712 -26.733 -14.803  0.00  0.00    -0.126 OA
ATOM      8  O   UNL     1      40.977 -24.590 -14.407  0.00  0.00    -0.126 OA
ATOM      9  N   UNL     1      40.243 -25.580 -14.644  0.00  0.00    +0.058 N 
ENDBRANCH   2   9
BRANCH   1  10
ATOM     10  O   UNL     1      34.733 -24.832 -14.996  0.00  0.00    -0.403 OA
BRANCH  10  11
ATOM     11  P   UNL     1      33.795 -24.246 -13.813  0.00  0.00    +0.528 P 
ATOM     12  O   UNL     1      34.455 -24.128 -12.471  0.00  0.00    -0.216 OA
BRANCH  11  13
ATOM     13  O   UNL     1      33.200 -22.872 -14.425  0.00  0.00    -0.293 OA
ATOM     14  H   UNL     1      32.472 -22.558 -13.867  0.00  0.00    +0.223 HD
ENDBRANCH  11  13
BRANCH  11  15
ATOM     15  O   UNL     1      32.518 -25.240 -13.846  0.00  0.00    -0.293 OA
ATOM     16  H   UNL     1      31.742 -24.780 -13.489  0.00  0.00    +0.223 HD
ENDBRANCH  11  15
ENDBRANCH  10  11
ENDBRANCH   1  10
TORSDOF 5
ENDMDL
MODEL 7
REMARK VINA RESULT:      -6.7      6.240      8.784
REMARK  Name = 378
REMARK  5 active torsions:
REMARK  status: ('A' for Active; 'I' for Inactive)
REMARK    1  A    between atoms: C_1  and  O_10
REMARK    2  A    between atoms: C_2  and  N_9
REMARK    3  A    between atoms: O_10  and  P_11
REMARK    4  A    between atoms: P_11  and  O_13
REMARK    5  A    between atoms: P_11  and  O_15
REMARK                            x       y       z     vdW  Elec       q    Type
REMARK                         _______ _______ _______ _____ _____    ______ ____
ROOT
ATOM      1  C   UNL     1      35.407 -23.375 -14.161  0.00  0.00    +0.149 C 
ATOM      2  C   UNL     1      34.054 -23.260 -16.598  0.00  0.00    +0.143 C 
ATOM      3  C   UNL     1      34.074 -23.779 -14.239  0.00  0.00    +0.039 C 
ATOM      4  C   UNL     1      36.065 -22.915 -15.302  0.00  0.00    +0.039 C 
ATOM      5  C   UNL     1      33.398 -23.721 -15.457  0.00  0.00    +0.027 C 
ATOM      6  C   UNL     1      35.388 -22.857 -16.520  0.00  0.00    +0.027 C 
ENDROOT
BRANCH   2   9
ATOM      7  O   UNL     1      33.843 -23.811 -18.827  0.00  0.00    -0.126 OA
ATOM      8  O   UNL     1      32.303 -22.540 -17.914  0.00  0.00    -0.126 OA
ATOM      9  N   UNL     1      33.367 -23.201 -17.839  0.00  0.00    +0.058 N 
ENDBRANCH   2   9
BRANCH   1  10
ATOM     10  O   UNL     1      36.067 -23.432 -12.970  0.00  0.00    -0.403 OA
BRANCH  10  11
ATOM     11  P   UNL     1      36.148 -24.734 -12.012  0.00  0.00    +0.528 P 
ATOM     12  O   UNL     1      34.994 -24.909 -11.068  0.00  0.00    -0.216 OA
BRANCH  11  13
ATOM     13  O   UNL     1      36.410 -25.961 -13.033  0.00  0.00    -0.293 OA
ATOM     14  H   UNL     1      36.055 -25.736 -13.907  0.00  0.00    +0.223 HD
ENDBRANCH  11  13
BRANCH  11  15
ATOM     15  O   UNL     1      37.584 -24.554 -11.287  0.00  0.00    -0.293 OA
ATOM     16  H   UNL     1      37.524 -24.866 -10.370  0.00  0.00    +0.223 HD
ENDBRANCH  11  15
ENDBRANCH  10  11
ENDBRANCH   1  10
TORSDOF 5
ENDMDL
MODEL 8
REMARK VINA RESULT:      -6.7      7.377      8.535
REMARK  Name = 378
REMARK  5 active torsions:
REMARK  status: ('A' for Active; 'I' for Inactive)
REMARK    1  A    between atoms: C_1  and  O_10
REMARK    2  A    between atoms: C_2  and  N_9
REMARK    3  A    between atoms: O_10  and  P_11
REMARK    4  A    between atoms: P_11  and  O_13
REMARK    5  A    between atoms: P_11  and  O_15
REMARK                            x       y       z     vdW  Elec       q    Type
REMARK                         _______ _______ _______ _____ _____    ______ ____
ROOT
ATOM      1  C   UNL     1      29.962 -24.133 -15.107  0.00  0.00    +0.149 C 
ATOM      2  C   UNL     1      32.627 -24.248 -14.289  0.00  0.00    +0.143 C 
ATOM      3  C   UNL     1      30.323 -24.921 -14.014  0.00  0.00    +0.039 C 
ATOM      4  C   UNL     1      30.933 -23.402 -15.791  0.00  0.00    +0.039 C 
ATOM      5  C   UNL     1      31.656 -24.979 -13.604  0.00  0.00    +0.027 C 
ATOM      6  C   UNL     1      32.266 -23.460 -15.381  0.00  0.00    +0.027 C 
ENDROOT
BRANCH   2   9
ATOM      7  O   UNL     1      34.242 -24.364 -12.647  0.00  0.00    -0.126 OA
ATOM      8  O   UNL     1      34.887 -24.295 -14.745  0.00  0.00    -0.126 OA
ATOM      9  N   UNL     1      33.984 -24.305 -13.874  0.00  0.00    +0.058 N 
ENDBRANCH   2   9
BRANCH   1  10
ATOM     10  O   UNL     1      28.661 -24.078 -15.504  0.00  0.00    -0.403 OA
BRANCH  10  11
ATOM     11  P   UNL     1      28.051 -23.004 -16.551  0.00  0.00    +0.528 P 
ATOM     12  O   UNL     1      28.980 -21.892 -16.942  0.00  0.00    -0.216 OA
BRANCH  11  13
ATOM     13  O   UNL     1      27.491 -23.911 -17.767  0.00  0.00    -0.293 OA
ATOM     14  H   UNL     1      27.475 -24.841 -17.496  0.00  0.00    +0.223 HD
ENDBRANCH  11  13
BRANCH  11  15
ATOM     15  O   UNL     1      26.697 -22.514 -15.811  0.00  0.00    -0.293 OA
ATOM     16  H   UNL     1      25.932 -22.956 -16.212  0.00  0.00    +0.223 HD
ENDBRANCH  11  15
ENDBRANCH  10  11
ENDBRANCH   1  10
TORSDOF 5
ENDMDL
MODEL 9
REMARK VINA RESULT:      -6.6      7.650      9.102
REMARK  Name = 378
REMARK  5 active torsions:
REMARK  status: ('A' for Active; 'I' for Inactive)
REMARK    1  A    between atoms: C_1  and  O_10
REMARK    2  A    between atoms: C_2  and  N_9
REMARK    3  A    between atoms: O_10  and  P_11
REMARK    4  A    between atoms: P_11  and  O_13
REMARK    5  A    between atoms: P_11  and  O_15
REMARK                            x       y       z     vdW  Elec       q    Type
REMARK                         _______ _______ _______ _____ _____    ______ ____
ROOT
ATOM      1  C   UNL     1      31.622 -23.789 -14.085  0.00  0.00    +0.149 C 
ATOM      2  C   UNL     1      29.565 -23.580 -15.959  0.00  0.00    +0.143 C 
ATOM      3  C   UNL     1      31.746 -22.912 -15.163  0.00  0.00    +0.039 C 
ATOM      4  C   UNL     1      30.469 -24.562 -13.944  0.00  0.00    +0.039 C 
ATOM      5  C   UNL     1      30.718 -22.807 -16.100  0.00  0.00    +0.027 C 
ATOM      6  C   UNL     1      29.441 -24.457 -14.881  0.00  0.00    +0.027 C 
ENDROOT
BRANCH   2   9
ATOM      7  O   UNL     1      27.940 -24.520 -17.299  0.00  0.00    -0.126 OA
ATOM      8  O   UNL     1      28.199 -22.340 -17.342  0.00  0.00    -0.126 OA
ATOM      9  N   UNL     1      28.518 -23.475 -16.912  0.00  0.00    +0.058 N 
ENDBRANCH   2   9
BRANCH   1  10
ATOM     10  O   UNL     1      32.626 -23.889 -13.171  0.00  0.00    -0.403 OA
BRANCH  10  11
ATOM     11  P   UNL     1      34.173 -24.219 -13.518  0.00  0.00    +0.528 P 
ATOM     12  O   UNL     1      34.984 -23.052 -14.001  0.00  0.00    -0.216 OA
BRANCH  11  13
ATOM     13  O   UNL     1      34.727 -24.956 -12.190  0.00  0.00    -0.293 OA
ATOM     14  H   UNL     1      35.368 -24.382 -11.744  0.00  0.00    +0.223 HD
ENDBRANCH  11  13
BRANCH  11  15
ATOM     15  O   UNL     1      34.049 -25.433 -14.582  0.00  0.00    -0.293 OA
ATOM     16  H   UNL     1      33.821 -26.251 -14.113  0.00  0.00    +0.223 HD
ENDBRANCH  11  15
ENDBRANCH  10  11
ENDBRANCH   1  10
TORSDOF 5
ENDMDL
