MODEL 1
REMARK VINA RESULT:      -5.5      0.000      0.000
REMARK  Name = 1535935
REMARK  3 active torsions:
REMARK  status: ('A' for Active; 'I' for Inactive)
REMARK    1  A    between atoms: N_2  and  CA_8
REMARK    2  A    between atoms: CA_8  and  C_11
REMARK    3  A    between atoms: C_11  and  O_12
REMARK                            x       y       z     vdW  Elec       q    Type
REMARK                         _______ _______ _______ _____ _____    ______ ____
ROOT
ATOM      1  O   UNL     1      36.020 -24.754 -15.567  0.00  0.00    -0.253 OA
ATOM      2  N   UNL     1      36.494 -25.754 -13.520  0.00  0.00    -0.281 N 
ATOM      3  N   UNL     1      36.197 -27.037 -15.408  0.00  0.00    -0.313 N 
ATOM      4  C   ACE A   0      36.221 -25.757 -14.884  0.00  0.00    +0.298 C 
ATOM      5  H   UNL     1      36.639 -26.618 -13.072  0.00  0.00    +0.151 HD
ATOM      6  H   UNL     1      36.014 -27.174 -16.365  0.00  0.00    +0.146 HD
ATOM      7  H   UNL     1      36.363 -27.812 -14.823  0.00  0.00    +0.146 HD
ENDROOT
BRANCH   2   8
ATOM      8  CA  UNL     1      36.578 -24.554 -12.729  0.00  0.00    +0.172 C 
ATOM      9  CB  UNL     1      37.905 -24.500 -11.988  0.00  0.00    +0.033 C 
BRANCH   8  11
ATOM     10  OXT UNL     1      35.371 -25.074 -10.699  0.00  0.00    -0.248 OA
ATOM     11  C   UNL     1      35.421 -24.442 -11.749  0.00  0.00    +0.332 C 
BRANCH  11  12
ATOM     12  O   UNL     1      34.435 -23.595 -12.131  0.00  0.00    -0.479 OA
ATOM     13  H   UNL     1      33.805 -23.866 -12.770  0.00  0.00    +0.295 HD
ENDBRANCH  11  12
ENDBRANCH   8  11
ENDBRANCH   2   8
TORSDOF 3
ENDMDL
MODEL 2
REMARK VINA RESULT:      -5.4     12.261     13.127
REMARK  Name = 1535935
REMARK  3 active torsions:
REMARK  status: ('A' for Active; 'I' for Inactive)
REMARK    1  A    between atoms: N_2  and  CA_8
REMARK    2  A    between atoms: CA_8  and  C_11
REMARK    3  A    between atoms: C_11  and  O_12
REMARK                            x       y       z     vdW  Elec       q    Type
REMARK                         _______ _______ _______ _____ _____    ______ ____
ROOT
ATOM      1  O   UNL     1      40.848 -15.098 -14.500  0.00  0.00    -0.253 OA
ATOM      2  N   UNL     1      41.722 -13.223 -15.564  0.00  0.00    -0.281 N 
ATOM      3  N   UNL     1      40.423 -12.998 -13.677  0.00  0.00    -0.313 N 
ATOM      4  C   ACE A   0      40.990 -13.879 -14.580  0.00  0.00    +0.298 C 
ATOM      5  H   UNL     1      41.770 -12.241 -15.532  0.00  0.00    +0.151 HD
ATOM      6  H   UNL     1      39.880 -13.339 -12.931  0.00  0.00    +0.146 HD
ATOM      7  H   UNL     1      40.564 -12.029 -13.780  0.00  0.00    +0.146 HD
ENDROOT
BRANCH   2   8
ATOM      8  CA  UNL     1      42.414 -13.904 -16.627  0.00  0.00    +0.172 C 
ATOM      9  CB  UNL     1      43.247 -12.918 -17.433  0.00  0.00    +0.033 C 
BRANCH   8  11
ATOM     10  OXT UNL     1      40.785 -14.102 -18.402  0.00  0.00    -0.248 OA
ATOM     11  C   UNL     1      41.455 -14.655 -17.537  0.00  0.00    +0.332 C 
BRANCH  11  12
ATOM     12  O   UNL     1      41.388 -15.988 -17.311  0.00  0.00    -0.479 OA
ATOM     13  H   UNL     1      40.744 -16.332 -16.722  0.00  0.00    +0.295 HD
ENDBRANCH  11  12
ENDBRANCH   8  11
ENDBRANCH   2   8
TORSDOF 3
ENDMDL
MODEL 3
REMARK VINA RESULT:      -5.4      3.237      4.394
REMARK  Name = 1535935
REMARK  3 active torsions:
REMARK  status: ('A' for Active; 'I' for Inactive)
REMARK    1  A    between atoms: N_2  and  CA_8
REMARK    2  A    between atoms: CA_8  and  C_11
REMARK    3  A    between atoms: C_11  and  O_12
REMARK                            x       y       z     vdW  Elec       q    Type
REMARK                         _______ _______ _______ _____ _____    ______ ____
ROOT
ATOM      1  O   UNL     1      35.919 -25.124 -15.563  0.00  0.00    -0.253 OA
ATOM      2  N   UNL     1      37.960 -24.172 -14.978  0.00  0.00    -0.281 N 
ATOM      3  N   UNL     1      36.223 -22.854 -15.716  0.00  0.00    -0.313 N 
ATOM      4  C   ACE A   0      36.644 -24.140 -15.428  0.00  0.00    +0.298 C 
ATOM      5  H   UNL     1      38.450 -23.321 -14.908  0.00  0.00    +0.151 HD
ATOM      6  H   UNL     1      35.309 -22.697 -16.043  0.00  0.00    +0.146 HD
ATOM      7  H   UNL     1      36.839 -22.095 -15.593  0.00  0.00    +0.146 HD
ENDROOT
BRANCH   2   8
ATOM      8  CA  UNL     1      38.645 -25.384 -14.609  0.00  0.00    +0.172 C 
ATOM      9  CB  UNL     1      38.451 -25.671 -13.128  0.00  0.00    +0.033 C 
BRANCH   8  11
ATOM     10  OXT UNL     1      40.943 -24.720 -14.258  0.00  0.00    -0.248 OA
ATOM     11  C   UNL     1      40.126 -25.322 -14.946  0.00  0.00    +0.332 C 
BRANCH  11  12
ATOM     12  O   UNL     1      40.476 -25.975 -16.080  0.00  0.00    -0.479 OA
ATOM     13  H   UNL     1      39.901 -25.972 -16.820  0.00  0.00    +0.295 HD
ENDBRANCH  11  12
ENDBRANCH   8  11
ENDBRANCH   2   8
TORSDOF 3
ENDMDL
MODEL 4
REMARK VINA RESULT:      -5.3      2.002      3.738
REMARK  Name = 1535935
REMARK  3 active torsions:
REMARK  status: ('A' for Active; 'I' for Inactive)
REMARK    1  A    between atoms: N_2  and  CA_8
REMARK    2  A    between atoms: CA_8  and  C_11
REMARK    3  A    between atoms: C_11  and  O_12
REMARK                            x       y       z     vdW  Elec       q    Type
REMARK                         _______ _______ _______ _____ _____    ______ ____
ROOT
ATOM      1  O   UNL     1      35.111 -24.982 -11.242  0.00  0.00    -0.253 OA
ATOM      2  N   UNL     1      36.021 -24.982 -13.383  0.00  0.00    -0.281 N 
ATOM      3  N   UNL     1      34.281 -23.571 -12.852  0.00  0.00    -0.313 N 
ATOM      4  C   ACE A   0      35.142 -24.553 -12.394  0.00  0.00    +0.298 C 
ATOM      5  H   UNL     1      35.957 -24.569 -14.274  0.00  0.00    +0.151 HD
ATOM      6  H   UNL     1      33.609 -23.184 -12.246  0.00  0.00    +0.146 HD
ATOM      7  H   UNL     1      34.342 -23.259 -13.784  0.00  0.00    +0.146 HD
ENDROOT
BRANCH   2   8
ATOM      8  CA  UNL     1      37.021 -25.996 -13.173  0.00  0.00    +0.172 C 
ATOM      9  CB  UNL     1      38.326 -25.365 -12.710  0.00  0.00    +0.033 C 
BRANCH   8  11
ATOM     10  OXT UNL     1      38.355 -27.254 -14.748  0.00  0.00    -0.248 OA
ATOM     11  C   UNL     1      37.252 -26.831 -14.422  0.00  0.00    +0.332 C 
BRANCH  11  12
ATOM     12  O   UNL     1      36.140 -27.063 -15.160  0.00  0.00    -0.479 OA
ATOM     13  H   UNL     1      36.158 -27.702 -15.846  0.00  0.00    +0.295 HD
ENDBRANCH  11  12
ENDBRANCH   8  11
ENDBRANCH   2   8
TORSDOF 3
ENDMDL
MODEL 5
REMARK VINA RESULT:      -5.2      3.227      4.757
REMARK  Name = 1535935
REMARK  3 active torsions:
REMARK  status: ('A' for Active; 'I' for Inactive)
REMARK    1  A    between atoms: N_2  and  CA_8
REMARK    2  A    between atoms: CA_8  and  C_11
REMARK    3  A    between atoms: C_11  and  O_12
REMARK                            x       y       z     vdW  Elec       q    Type
REMARK                         _______ _______ _______ _____ _____    ______ ____
ROOT
ATOM      1  O   UNL     1      36.602 -23.335 -13.438  0.00  0.00    -0.253 OA
ATOM      2  N   UNL     1      38.489 -24.663 -13.140  0.00  0.00    -0.281 N 
ATOM      3  N   UNL     1      37.571 -23.519 -11.365  0.00  0.00    -0.313 N 
ATOM      4  C   ACE A   0      37.481 -23.803 -12.716  0.00  0.00    +0.298 C 
ATOM      5  H   UNL     1      39.142 -24.978 -12.475  0.00  0.00    +0.151 HD
ATOM      6  H   UNL     1      36.915 -22.920 -10.943  0.00  0.00    +0.146 HD
ATOM      7  H   UNL     1      38.293 -23.917 -10.826  0.00  0.00    +0.146 HD
ENDROOT
BRANCH   2   8
ATOM      8  CA  UNL     1      38.626 -25.118 -14.498  0.00  0.00    +0.172 C 
ATOM      9  CB  UNL     1      37.908 -26.446 -14.687  0.00  0.00    +0.033 C 
BRANCH   8  11
ATOM     10  OXT UNL     1      41.006 -24.769 -14.253  0.00  0.00    -0.248 OA
ATOM     11  C   UNL     1      40.085 -25.244 -14.908  0.00  0.00    +0.332 C 
BRANCH  11  12
ATOM     12  O   UNL     1      40.291 -25.915 -16.067  0.00  0.00    -0.479 OA
ATOM     13  H   UNL     1      41.007 -25.679 -16.624  0.00  0.00    +0.295 HD
ENDBRANCH  11  12
ENDBRANCH   8  11
ENDBRANCH   2   8
TORSDOF 3
ENDMDL
MODEL 6
REMARK VINA RESULT:      -5.2      3.039      4.073
REMARK  Name = 1535935
REMARK  3 active torsions:
REMARK  status: ('A' for Active; 'I' for Inactive)
REMARK    1  A    between atoms: N_2  and  CA_8
REMARK    2  A    between atoms: CA_8  and  C_11
REMARK    3  A    between atoms: C_11  and  O_12
REMARK                            x       y       z     vdW  Elec       q    Type
REMARK                         _______ _______ _______ _____ _____    ______ ____
ROOT
ATOM      1  O   UNL     1      40.957 -24.716 -14.557  0.00  0.00    -0.253 OA
ATOM      2  N   UNL     1      39.132 -25.880 -13.703  0.00  0.00    -0.281 N 
ATOM      3  N   UNL     1      41.114 -26.968 -14.136  0.00  0.00    -0.313 N 
ATOM      4  C   ACE A   0      40.439 -25.761 -14.164  0.00  0.00    +0.298 C 
ATOM      5  H   UNL     1      38.819 -26.767 -13.412  0.00  0.00    +0.151 HD
ATOM      6  H   UNL     1      42.049 -27.016 -14.438  0.00  0.00    +0.146 HD
ATOM      7  H   UNL     1      40.659 -27.779 -13.813  0.00  0.00    +0.146 HD
ENDROOT
BRANCH   2   8
ATOM      8  CA  UNL     1      38.211 -24.776 -13.628  0.00  0.00    +0.172 C 
ATOM      9  CB  UNL     1      37.084 -25.093 -12.656  0.00  0.00    +0.033 C 
BRANCH   8  11
ATOM     10  OXT UNL     1      36.611 -24.900 -15.436  0.00  0.00    -0.248 OA
ATOM     11  C   UNL     1      37.647 -24.416 -14.993  0.00  0.00    +0.332 C 
BRANCH  11  12
ATOM     12  O   UNL     1      38.386 -23.523 -15.693  0.00  0.00    -0.479 OA
ATOM     13  H   UNL     1      39.320 -23.531 -15.623  0.00  0.00    +0.295 HD
ENDBRANCH  11  12
ENDBRANCH   8  11
ENDBRANCH   2   8
TORSDOF 3
ENDMDL
MODEL 7
REMARK VINA RESULT:      -5.2      2.454      2.806
REMARK  Name = 1535935
REMARK  3 active torsions:
REMARK  status: ('A' for Active; 'I' for Inactive)
REMARK    1  A    between atoms: N_2  and  CA_8
REMARK    2  A    between atoms: CA_8  and  C_11
REMARK    3  A    between atoms: C_11  and  O_12
REMARK                            x       y       z     vdW  Elec       q    Type
REMARK                         _______ _______ _______ _____ _____    ______ ____
ROOT
ATOM      1  O   UNL     1      38.472 -26.907 -14.652  0.00  0.00    -0.253 OA
ATOM      2  N   UNL     1      38.156 -24.632 -14.286  0.00  0.00    -0.281 N 
ATOM      3  N   UNL     1      40.016 -25.388 -15.413  0.00  0.00    -0.313 N 
ATOM      4  C   ACE A   0      38.843 -25.740 -14.770  0.00  0.00    +0.298 C 
ATOM      5  H   UNL     1      38.545 -23.740 -14.436  0.00  0.00    +0.151 HD
ATOM      6  H   UNL     1      40.593 -26.083 -15.801  0.00  0.00    +0.146 HD
ATOM      7  H   UNL     1      40.272 -24.439 -15.483  0.00  0.00    +0.146 HD
ENDROOT
BRANCH   2   8
ATOM      8  CA  UNL     1      36.907 -24.717 -13.576  0.00  0.00    +0.172 C 
ATOM      9  CB  UNL     1      36.205 -23.367 -13.574  0.00  0.00    +0.033 C 
BRANCH   8  11
ATOM     10  OXT UNL     1      37.461 -24.490 -11.234  0.00  0.00    -0.248 OA
ATOM     11  C   UNL     1      37.097 -25.216 -12.153  0.00  0.00    +0.332 C 
BRANCH  11  12
ATOM     12  O   UNL     1      36.847 -26.536 -11.977  0.00  0.00    -0.479 OA
ATOM     13  H   UNL     1      37.209 -26.988 -11.241  0.00  0.00    +0.295 HD
ENDBRANCH  11  12
ENDBRANCH   8  11
ENDBRANCH   2   8
TORSDOF 3
ENDMDL
MODEL 8
REMARK VINA RESULT:      -5.1      2.778      3.012
REMARK  Name = 1535935
REMARK  3 active torsions:
REMARK  status: ('A' for Active; 'I' for Inactive)
REMARK    1  A    between atoms: N_2  and  CA_8
REMARK    2  A    between atoms: CA_8  and  C_11
REMARK    3  A    between atoms: C_11  and  O_12
REMARK                            x       y       z     vdW  Elec       q    Type
REMARK                         _______ _______ _______ _____ _____    ______ ____
ROOT
ATOM      1  O   UNL     1      38.373 -26.892 -14.645  0.00  0.00    -0.253 OA
ATOM      2  N   UNL     1      38.996 -24.983 -13.471  0.00  0.00    -0.281 N 
ATOM      3  N   UNL     1      40.592 -26.366 -14.387  0.00  0.00    -0.313 N 
ATOM      4  C   ACE A   0      39.240 -26.140 -14.203  0.00  0.00    +0.298 C 
ATOM      5  H   UNL     1      39.768 -24.454 -13.165  0.00  0.00    +0.151 HD
ATOM      6  H   UNL     1      40.896 -27.155 -14.890  0.00  0.00    +0.146 HD
ATOM      7  H   UNL     1      41.251 -25.736 -14.014  0.00  0.00    +0.146 HD
ENDROOT
BRANCH   2   8
ATOM      8  CA  UNL     1      37.676 -24.516 -13.137  0.00  0.00    +0.172 C 
ATOM      9  CB  UNL     1      37.163 -23.568 -14.210  0.00  0.00    +0.033 C 
BRANCH   8  11
ATOM     10  OXT UNL     1      36.925 -24.225 -10.858  0.00  0.00    -0.248 OA
ATOM     11  C   UNL     1      37.641 -23.841 -11.775  0.00  0.00    +0.332 C 
BRANCH  11  12
ATOM     12  O   UNL     1      38.459 -22.768 -11.655  0.00  0.00    -0.479 OA
ATOM     13  H   UNL     1      38.806 -22.535 -10.816  0.00  0.00    +0.295 HD
ENDBRANCH  11  12
ENDBRANCH   8  11
ENDBRANCH   2   8
TORSDOF 3
ENDMDL
MODEL 9
REMARK VINA RESULT:      -5.1      2.187      4.124
REMARK  Name = 1535935
REMARK  3 active torsions:
REMARK  status: ('A' for Active; 'I' for Inactive)
REMARK    1  A    between atoms: N_2  and  CA_8
REMARK    2  A    between atoms: CA_8  and  C_11
REMARK    3  A    between atoms: C_11  and  O_12
REMARK                            x       y       z     vdW  Elec       q    Type
REMARK                         _______ _______ _______ _____ _____    ______ ____
ROOT
ATOM      1  O   UNL     1      36.616 -25.772 -11.697  0.00  0.00    -0.253 OA
ATOM      2  N   UNL     1      38.175 -24.728 -13.072  0.00  0.00    -0.281 N 
ATOM      3  N   UNL     1      37.314 -23.633 -11.239  0.00  0.00    -0.313 N 
ATOM      4  C   ACE A   0      37.311 -24.799 -11.984  0.00  0.00    +0.298 C 
ATOM      5  H   UNL     1      38.686 -23.897 -13.208  0.00  0.00    +0.151 HD
ATOM      6  H   UNL     1      36.743 -23.557 -10.441  0.00  0.00    +0.146 HD
ATOM      7  H   UNL     1      37.887 -22.879 -11.507  0.00  0.00    +0.146 HD
ENDROOT
BRANCH   2   8
ATOM      8  CA  UNL     1      38.363 -25.804 -14.009  0.00  0.00    +0.172 C 
ATOM      9  CB  UNL     1      39.785 -25.792 -14.550  0.00  0.00    +0.033 C 
BRANCH   8  11
ATOM     10  OXT UNL     1      36.702 -24.739 -15.406  0.00  0.00    -0.248 OA
ATOM     11  C   UNL     1      37.363 -25.740 -15.153  0.00  0.00    +0.332 C 
BRANCH  11  12
ATOM     12  O   UNL     1      37.247 -26.884 -15.868  0.00  0.00    -0.479 OA
ATOM     13  H   UNL     1      36.676 -27.566 -15.571  0.00  0.00    +0.295 HD
ENDBRANCH  11  12
ENDBRANCH   8  11
ENDBRANCH   2   8
TORSDOF 3
ENDMDL
