MODEL 1
REMARK VINA RESULT:      -7.5      0.000      0.000
REMARK  Name = 5289310
REMARK  3 active torsions:
REMARK  status: ('A' for Active; 'I' for Inactive)
REMARK    1  A    between atoms: C_1  and  N_10
REMARK    2  A    between atoms: N_10  and  C_13
REMARK    3  A    between atoms: C_13  and  C_14
REMARK                            x       y       z     vdW  Elec       q    Type
REMARK                         _______ _______ _______ _____ _____    ______ ____
ROOT
ATOM      1  C   UNL     1      35.631 -19.128 -21.386  0.00  0.00    -0.037 C 
ATOM      2  C   UNL     1      36.964 -19.354 -20.643  0.00  0.00    -0.012 C 
ATOM      3  C   UNL     1      36.925 -20.798 -20.122  0.00  0.00    +0.024 C 
ATOM      4  C   UNL     1      34.716 -20.020 -20.597  0.00  0.00    -0.046 C 
ATOM      5  C   UNL     1      35.458 -20.973 -19.884  0.00  0.00    -0.028 C 
ATOM      6  C   UNL     1      33.329 -20.034 -20.563  0.00  0.00    -0.007 C 
ATOM      7  C   UNL     1      34.834 -21.945 -19.119  0.00  0.00    -0.005 C 
ATOM      8  C   UNL     1      32.692 -21.002 -19.783  0.00  0.00    -0.000 C 
ATOM      9  C   UNL     1      33.439 -21.950 -19.067  0.00  0.00    -0.000 C 
ENDROOT
BRANCH   1  10
ATOM     10  N   UNL     1      35.265 -17.721 -21.383  0.00  0.00    +0.396 N 
ATOM     11  H   UNL     1      35.875 -17.217 -20.740  0.00  0.00    -0.082 HD
ATOM     12  H   UNL     1      34.291 -17.639 -21.089  0.00  0.00    -0.082 HD
BRANCH  10  13
ATOM     13  C   UNL     1      35.396 -17.144 -22.715  0.00  0.00    -0.001 C 
BRANCH  13  14
ATOM     14  C   UNL     1      34.910 -18.074 -23.739  0.00  0.00    -0.102 C 
ATOM     15  C   UNL     1      34.518 -18.837 -24.578  0.00  0.00    -0.016 C 
ENDBRANCH  13  14
ENDBRANCH  10  13
ENDBRANCH   1  10
TORSDOF 3
ENDMDL
MODEL 2
REMARK VINA RESULT:      -7.4      1.798      5.202
REMARK  Name = 5289310
REMARK  3 active torsions:
REMARK  status: ('A' for Active; 'I' for Inactive)
REMARK    1  A    between atoms: C_1  and  N_10
REMARK    2  A    between atoms: N_10  and  C_13
REMARK    3  A    between atoms: C_13  and  C_14
REMARK                            x       y       z     vdW  Elec       q    Type
REMARK                         _______ _______ _______ _____ _____    ______ ____
ROOT
ATOM      1  C   UNL     1      35.637 -18.133 -21.800  0.00  0.00    -0.037 C 
ATOM      2  C   UNL     1      35.193 -18.666 -23.178  0.00  0.00    -0.012 C 
ATOM      3  C   UNL     1      35.053 -17.437 -24.089  0.00  0.00    +0.024 C 
ATOM      4  C   UNL     1      34.965 -16.789 -21.790  0.00  0.00    -0.046 C 
ATOM      5  C   UNL     1      34.640 -16.396 -23.096  0.00  0.00    -0.028 C 
ATOM      6  C   UNL     1      34.719 -15.948 -20.716  0.00  0.00    -0.007 C 
ATOM      7  C   UNL     1      34.057 -15.165 -23.352  0.00  0.00    -0.005 C 
ATOM      8  C   UNL     1      34.119 -14.711 -20.964  0.00  0.00    -0.000 C 
ATOM      9  C   UNL     1      33.791 -14.323 -22.271  0.00  0.00    -0.000 C 
ENDROOT
BRANCH   1  10
ATOM     10  N   UNL     1      35.222 -19.032 -20.735  0.00  0.00    +0.396 N 
ATOM     11  H   UNL     1      35.208 -18.522 -19.852  0.00  0.00    -0.082 HD
ATOM     12  H   UNL     1      35.883 -19.808 -20.689  0.00  0.00    -0.082 HD
BRANCH  10  13
ATOM     13  C   UNL     1      33.893 -19.570 -20.994  0.00  0.00    -0.001 C 
BRANCH  13  14
ATOM     14  C   UNL     1      33.592 -20.683 -20.087  0.00  0.00    -0.102 C 
ATOM     15  C   UNL     1      33.351 -21.596 -19.347  0.00  0.00    -0.016 C 
ENDBRANCH  13  14
ENDBRANCH  10  13
ENDBRANCH   1  10
TORSDOF 3
ENDMDL
MODEL 3
REMARK VINA RESULT:      -7.4      1.599      2.153
REMARK  Name = 5289310
REMARK  3 active torsions:
REMARK  status: ('A' for Active; 'I' for Inactive)
REMARK    1  A    between atoms: C_1  and  N_10
REMARK    2  A    between atoms: N_10  and  C_13
REMARK    3  A    between atoms: C_13  and  C_14
REMARK                            x       y       z     vdW  Elec       q    Type
REMARK                         _______ _______ _______ _____ _____    ______ ____
ROOT
ATOM      1  C   UNL     1      35.097 -18.813 -21.978  0.00  0.00    -0.037 C 
ATOM      2  C   UNL     1      36.494 -18.660 -21.340  0.00  0.00    -0.012 C 
ATOM      3  C   UNL     1      36.805 -20.001 -20.661  0.00  0.00    +0.024 C 
ATOM      4  C   UNL     1      34.453 -19.768 -21.014  0.00  0.00    -0.046 C 
ATOM      5  C   UNL     1      35.430 -20.446 -20.271  0.00  0.00    -0.028 C 
ATOM      6  C   UNL     1      33.108 -20.066 -20.851  0.00  0.00    -0.007 C 
ATOM      7  C   UNL     1      35.084 -21.421 -19.349  0.00  0.00    -0.005 C 
ATOM      8  C   UNL     1      32.750 -21.038 -19.914  0.00  0.00    -0.000 C 
ATOM      9  C   UNL     1      33.730 -21.710 -19.169  0.00  0.00    -0.000 C 
ENDROOT
BRANCH   1  10
ATOM     10  N   UNL     1      34.434 -17.525 -22.097  0.00  0.00    +0.396 N 
ATOM     11  H   UNL     1      33.425 -17.661 -22.043  0.00  0.00    -0.082 HD
ATOM     12  H   UNL     1      34.690 -17.109 -22.994  0.00  0.00    -0.082 HD
BRANCH  10  13
ATOM     13  C   UNL     1      34.851 -16.622 -21.032  0.00  0.00    -0.001 C 
BRANCH  13  14
ATOM     14  C   UNL     1      33.799 -15.645 -20.732  0.00  0.00    -0.102 C 
ATOM     15  C   UNL     1      32.940 -14.842 -20.490  0.00  0.00    -0.016 C 
ENDBRANCH  13  14
ENDBRANCH  10  13
ENDBRANCH   1  10
TORSDOF 3
ENDMDL
MODEL 4
REMARK VINA RESULT:      -7.3      2.225      5.288
REMARK  Name = 5289310
REMARK  3 active torsions:
REMARK  status: ('A' for Active; 'I' for Inactive)
REMARK    1  A    between atoms: C_1  and  N_10
REMARK    2  A    between atoms: N_10  and  C_13
REMARK    3  A    between atoms: C_13  and  C_14
REMARK                            x       y       z     vdW  Elec       q    Type
REMARK                         _______ _______ _______ _____ _____    ______ ____
ROOT
ATOM      1  C   UNL     1      35.625 -17.196 -21.908  0.00  0.00    -0.037 C 
ATOM      2  C   UNL     1      35.326 -17.724 -23.327  0.00  0.00    -0.012 C 
ATOM      3  C   UNL     1      34.791 -16.528 -24.127  0.00  0.00    +0.024 C 
ATOM      4  C   UNL     1      34.575 -16.129 -21.780  0.00  0.00    -0.046 C 
ATOM      5  C   UNL     1      34.108 -15.748 -23.047  0.00  0.00    -0.028 C 
ATOM      6  C   UNL     1      34.114 -15.494 -20.636  0.00  0.00    -0.007 C 
ATOM      7  C   UNL     1      33.170 -14.740 -23.194  0.00  0.00    -0.005 C 
ATOM      8  C   UNL     1      33.158 -14.485 -20.775  0.00  0.00    -0.000 C 
ATOM      9  C   UNL     1      32.689 -14.111 -22.043  0.00  0.00    -0.000 C 
ENDROOT
BRANCH   1  10
ATOM     10  N   UNL     1      35.536 -18.262 -20.924  0.00  0.00    +0.396 N 
ATOM     11  H   UNL     1      34.921 -17.968 -20.166  0.00  0.00    -0.082 HD
ATOM     12  H   UNL     1      36.473 -18.456 -20.569  0.00  0.00    -0.082 HD
BRANCH  10  13
ATOM     13  C   UNL     1      35.006 -19.481 -21.522  0.00  0.00    -0.001 C 
BRANCH  13  14
ATOM     14  C   UNL     1      33.832 -19.959 -20.784  0.00  0.00    -0.102 C 
ATOM     15  C   UNL     1      32.870 -20.344 -20.179  0.00  0.00    -0.016 C 
ENDBRANCH  13  14
ENDBRANCH  10  13
ENDBRANCH   1  10
TORSDOF 3
ENDMDL
MODEL 5
REMARK VINA RESULT:      -7.3      2.524      5.496
REMARK  Name = 5289310
REMARK  3 active torsions:
REMARK  status: ('A' for Active; 'I' for Inactive)
REMARK    1  A    between atoms: C_1  and  N_10
REMARK    2  A    between atoms: N_10  and  C_13
REMARK    3  A    between atoms: C_13  and  C_14
REMARK                            x       y       z     vdW  Elec       q    Type
REMARK                         _______ _______ _______ _____ _____    ______ ____
ROOT
ATOM      1  C   UNL     1      35.417 -16.513 -23.557  0.00  0.00    -0.037 C 
ATOM      2  C   UNL     1      34.465 -16.516 -24.771  0.00  0.00    -0.012 C 
ATOM      3  C   UNL     1      33.593 -15.259 -24.636  0.00  0.00    +0.024 C 
ATOM      4  C   UNL     1      34.554 -15.842 -22.527  0.00  0.00    -0.046 C 
ATOM      5  C   UNL     1      33.520 -15.125 -23.147  0.00  0.00    -0.028 C 
ATOM      6  C   UNL     1      34.708 -15.811 -21.149  0.00  0.00    -0.007 C 
ATOM      7  C   UNL     1      32.620 -14.376 -22.406  0.00  0.00    -0.005 C 
ATOM      8  C   UNL     1      33.796 -15.070 -20.393  0.00  0.00    -0.000 C 
ATOM      9  C   UNL     1      32.761 -14.358 -21.017  0.00  0.00    -0.000 C 
ENDROOT
BRANCH   1  10
ATOM     10  N   UNL     1      35.835 -17.864 -23.219  0.00  0.00    +0.396 N 
ATOM     11  H   UNL     1      36.157 -17.882 -22.251  0.00  0.00    -0.082 HD
ATOM     12  H   UNL     1      36.587 -18.140 -23.851  0.00  0.00    -0.082 HD
BRANCH  10  13
ATOM     13  C   UNL     1      34.733 -18.805 -23.371  0.00  0.00    -0.001 C 
BRANCH  13  14
ATOM     14  C   UNL     1      34.316 -19.339 -22.070  0.00  0.00    -0.102 C 
ATOM     15  C   UNL     1      33.972 -19.770 -21.004  0.00  0.00    -0.016 C 
ENDBRANCH  13  14
ENDBRANCH  10  13
ENDBRANCH   1  10
TORSDOF 3
ENDMDL
MODEL 6
REMARK VINA RESULT:      -7.3      1.671      5.264
REMARK  Name = 5289310
REMARK  3 active torsions:
REMARK  status: ('A' for Active; 'I' for Inactive)
REMARK    1  A    between atoms: C_1  and  N_10
REMARK    2  A    between atoms: N_10  and  C_13
REMARK    3  A    between atoms: C_13  and  C_14
REMARK                            x       y       z     vdW  Elec       q    Type
REMARK                         _______ _______ _______ _____ _____    ______ ____
ROOT
ATOM      1  C   UNL     1      34.643 -17.506 -21.258  0.00  0.00    -0.037 C 
ATOM      2  C   UNL     1      34.729 -16.068 -20.706  0.00  0.00    -0.012 C 
ATOM      3  C   UNL     1      33.950 -15.183 -21.689  0.00  0.00    +0.024 C 
ATOM      4  C   UNL     1      34.587 -17.236 -22.735  0.00  0.00    -0.046 C 
ATOM      5  C   UNL     1      34.186 -15.913 -22.975  0.00  0.00    -0.028 C 
ATOM      6  C   UNL     1      34.808 -18.109 -23.789  0.00  0.00    -0.007 C 
ATOM      7  C   UNL     1      34.010 -15.438 -24.264  0.00  0.00    -0.005 C 
ATOM      8  C   UNL     1      34.645 -17.634 -25.093  0.00  0.00    -0.000 C 
ATOM      9  C   UNL     1      34.250 -16.309 -25.328  0.00  0.00    -0.000 C 
ENDROOT
BRANCH   1  10
ATOM     10  N   UNL     1      35.781 -18.300 -20.825  0.00  0.00    +0.396 N 
ATOM     11  H   UNL     1      35.985 -18.088 -19.849  0.00  0.00    -0.082 HD
ATOM     12  H   UNL     1      36.581 -18.070 -21.415  0.00  0.00    -0.082 HD
BRANCH  10  13
ATOM     13  C   UNL     1      35.504 -19.725 -20.955  0.00  0.00    -0.001 C 
BRANCH  13  14
ATOM     14  C   UNL     1      34.119 -20.026 -20.580  0.00  0.00    -0.102 C 
ATOM     15  C   UNL     1      32.987 -20.276 -20.269  0.00  0.00    -0.016 C 
ENDBRANCH  13  14
ENDBRANCH  10  13
ENDBRANCH   1  10
TORSDOF 3
ENDMDL
MODEL 7
REMARK VINA RESULT:      -7.1      3.974      5.768
REMARK  Name = 5289310
REMARK  3 active torsions:
REMARK  status: ('A' for Active; 'I' for Inactive)
REMARK    1  A    between atoms: C_1  and  N_10
REMARK    2  A    between atoms: N_10  and  C_13
REMARK    3  A    between atoms: C_13  and  C_14
REMARK                            x       y       z     vdW  Elec       q    Type
REMARK                         _______ _______ _______ _____ _____    ______ ____
ROOT
ATOM      1  C   UNL     1      32.983 -23.279 -17.528  0.00  0.00    -0.037 C 
ATOM      2  C   UNL     1      34.384 -22.978 -16.955  0.00  0.00    -0.012 C 
ATOM      3  C   UNL     1      34.410 -23.585 -15.545  0.00  0.00    +0.024 C 
ATOM      4  C   UNL     1      32.157 -23.258 -16.273  0.00  0.00    -0.046 C 
ATOM      5  C   UNL     1      32.974 -23.438 -15.148  0.00  0.00    -0.028 C 
ATOM      6  C   UNL     1      30.781 -23.154 -16.139  0.00  0.00    -0.007 C 
ATOM      7  C   UNL     1      32.436 -23.508 -13.873  0.00  0.00    -0.005 C 
ATOM      8  C   UNL     1      30.231 -23.210 -14.856  0.00  0.00    -0.000 C 
ATOM      9  C   UNL     1      31.052 -23.385 -13.732  0.00  0.00    -0.000 C 
ENDROOT
BRANCH   1  10
ATOM     10  N   UNL     1      32.605 -22.291 -18.526  0.00  0.00    +0.396 N 
ATOM     11  H   UNL     1      32.161 -21.499 -18.061  0.00  0.00    -0.082 HD
ATOM     12  H   UNL     1      31.959 -22.726 -19.185  0.00  0.00    -0.082 HD
BRANCH  10  13
ATOM     13  C   UNL     1      33.771 -21.818 -19.261  0.00  0.00    -0.001 C 
BRANCH  13  14
ATOM     14  C   UNL     1      33.425 -20.674 -20.111  0.00  0.00    -0.102 C 
ATOM     15  C   UNL     1      33.145 -19.741 -20.812  0.00  0.00    -0.016 C 
ENDBRANCH  13  14
ENDBRANCH  10  13
ENDBRANCH   1  10
TORSDOF 3
ENDMDL
MODEL 8
REMARK VINA RESULT:      -7.0      4.422      7.031
REMARK  Name = 5289310
REMARK  3 active torsions:
REMARK  status: ('A' for Active; 'I' for Inactive)
REMARK    1  A    between atoms: C_1  and  N_10
REMARK    2  A    between atoms: N_10  and  C_13
REMARK    3  A    between atoms: C_13  and  C_14
REMARK                            x       y       z     vdW  Elec       q    Type
REMARK                         _______ _______ _______ _____ _____    ______ ____
ROOT
ATOM      1  C   UNL     1      33.381 -13.894 -24.202  0.00  0.00    -0.037 C 
ATOM      2  C   UNL     1      33.203 -13.875 -25.735  0.00  0.00    -0.012 C 
ATOM      3  C   UNL     1      33.020 -15.338 -26.165  0.00  0.00    +0.024 C 
ATOM      4  C   UNL     1      34.063 -15.220 -24.017  0.00  0.00    -0.046 C 
ATOM      5  C   UNL     1      33.849 -16.040 -25.135  0.00  0.00    -0.028 C 
ATOM      6  C   UNL     1      34.763 -15.693 -22.917  0.00  0.00    -0.007 C 
ATOM      7  C   UNL     1      34.337 -17.336 -25.179  0.00  0.00    -0.005 C 
ATOM      8  C   UNL     1      35.269 -16.994 -22.959  0.00  0.00    -0.000 C 
ATOM      9  C   UNL     1      35.058 -17.809 -24.082  0.00  0.00    -0.000 C 
ENDROOT
BRANCH   1  10
ATOM     10  N   UNL     1      34.148 -12.744 -23.751  0.00  0.00    +0.396 N 
ATOM     11  H   UNL     1      35.124 -12.866 -24.021  0.00  0.00    -0.082 HD
ATOM     12  H   UNL     1      34.064 -12.675 -22.737  0.00  0.00    -0.082 HD
BRANCH  10  13
ATOM     13  C   UNL     1      33.640 -11.513 -24.343  0.00  0.00    -0.001 C 
BRANCH  13  14
ATOM     14  C   UNL     1      34.678 -10.847 -25.137  0.00  0.00    -0.102 C 
ATOM     15  C   UNL     1      35.528 -10.307 -25.789  0.00  0.00    -0.016 C 
ENDBRANCH  13  14
ENDBRANCH  10  13
ENDBRANCH   1  10
TORSDOF 3
ENDMDL
MODEL 9
REMARK VINA RESULT:      -7.0      3.281      5.123
REMARK  Name = 5289310
REMARK  3 active torsions:
REMARK  status: ('A' for Active; 'I' for Inactive)
REMARK    1  A    between atoms: C_1  and  N_10
REMARK    2  A    between atoms: N_10  and  C_13
REMARK    3  A    between atoms: C_13  and  C_14
REMARK                            x       y       z     vdW  Elec       q    Type
REMARK                         _______ _______ _______ _____ _____    ______ ____
ROOT
ATOM      1  C   UNL     1      34.582 -15.028 -23.070  0.00  0.00    -0.037 C 
ATOM      2  C   UNL     1      34.055 -14.696 -21.659  0.00  0.00    -0.012 C 
ATOM      3  C   UNL     1      34.652 -15.752 -20.717  0.00  0.00    +0.024 C 
ATOM      4  C   UNL     1      34.702 -16.523 -22.979  0.00  0.00    -0.046 C 
ATOM      5  C   UNL     1      34.748 -16.929 -21.638  0.00  0.00    -0.028 C 
ATOM      6  C   UNL     1      34.829 -17.450 -24.003  0.00  0.00    -0.007 C 
ATOM      7  C   UNL     1      34.910 -18.261 -21.295  0.00  0.00    -0.005 C 
ATOM      8  C   UNL     1      34.979 -18.797 -23.666  0.00  0.00    -0.000 C 
ATOM      9  C   UNL     1      35.019 -19.200 -22.323  0.00  0.00    -0.000 C 
ENDROOT
BRANCH   1  10
ATOM     10  N   UNL     1      33.668 -14.550 -24.095  0.00  0.00    +0.396 N 
ATOM     11  H   UNL     1      32.915 -15.228 -24.214  0.00  0.00    -0.082 HD
ATOM     12  H   UNL     1      34.187 -14.435 -24.966  0.00  0.00    -0.082 HD
BRANCH  10  13
ATOM     13  C   UNL     1      33.095 -13.262 -23.724  0.00  0.00    -0.001 C 
BRANCH  13  14
ATOM     14  C   UNL     1      33.733 -12.172 -24.468  0.00  0.00    -0.102 C 
ATOM     15  C   UNL     1      34.257 -11.277 -25.073  0.00  0.00    -0.016 C 
ENDBRANCH  13  14
ENDBRANCH  10  13
ENDBRANCH   1  10
TORSDOF 3
ENDMDL
