MODEL 1
REMARK VINA RESULT:      -6.0      0.000      0.000
REMARK  Name = 6789253
REMARK  1 active torsions:
REMARK  status: ('A' for Active; 'I' for Inactive)
REMARK    1  A    between atoms: C_8  and  N_10
REMARK                            x       y       z     vdW  Elec       q    Type
REMARK                         _______ _______ _______ _____ _____    ______ ____
ROOT
ATOM      1  N   UNL     1      35.455 -20.845 -19.887  0.00  0.00    -0.283 N 
ATOM      2  C   UNL     1      34.157 -21.299 -19.540  0.00  0.00    +0.071 C 
ATOM      3  C   UNL     1      35.585 -19.792 -20.796  0.00  0.00    +0.065 C 
ATOM      4  C   UNL     1      33.021 -20.612 -20.176  0.00  0.00    +0.016 C 
ATOM      5  C   UNL     1      36.657 -21.455 -19.312  0.00  0.00    +0.117 C 
ATOM      6  C   UNL     1      34.547 -19.169 -21.375  0.00  0.00    +0.016 C 
ATOM      7  C   UNL     1      33.210 -19.604 -21.045  0.00  0.00    +0.003 C 
ATOM      8  C   UNL     1      33.881 -22.299 -18.681  0.00  0.00    +0.113 C 
ENDROOT
BRANCH   8  10
ATOM      9  O   UNL     1      31.874 -22.539 -17.374  0.00  0.00    -0.088 OA
ATOM     10  N   UNL     1      32.504 -22.584 -18.484  0.00  0.00    -0.229 N 
ATOM     11  H   UNL     1      31.984 -22.842 -19.280  0.00  0.00    +0.197 HD
ENDBRANCH   8  10
TORSDOF 1
ENDMDL
MODEL 2
REMARK VINA RESULT:      -5.9      4.062      5.273
REMARK  Name = 6789253
REMARK  1 active torsions:
REMARK  status: ('A' for Active; 'I' for Inactive)
REMARK    1  A    between atoms: C_8  and  N_10
REMARK                            x       y       z     vdW  Elec       q    Type
REMARK                         _______ _______ _______ _____ _____    ______ ____
ROOT
ATOM      1  N   UNL     1      34.636 -16.431 -23.138  0.00  0.00    -0.283 N 
ATOM      2  C   UNL     1      34.956 -17.632 -22.455  0.00  0.00    +0.071 C 
ATOM      3  C   UNL     1      34.335 -16.486 -24.502  0.00  0.00    +0.065 C 
ATOM      4  C   UNL     1      34.946 -18.871 -23.250  0.00  0.00    +0.016 C 
ATOM      5  C   UNL     1      34.613 -15.140 -22.446  0.00  0.00    +0.117 C 
ATOM      6  C   UNL     1      34.328 -17.617 -25.223  0.00  0.00    +0.016 C 
ATOM      7  C   UNL     1      34.649 -18.860 -24.560  0.00  0.00    +0.003 C 
ATOM      8  C   UNL     1      35.265 -17.730 -21.148  0.00  0.00    +0.113 C 
ENDROOT
BRANCH   8  10
ATOM      9  O   UNL     1      36.672 -19.448 -20.218  0.00  0.00    -0.088 OA
ATOM     10  N   UNL     1      35.552 -19.038 -20.675  0.00  0.00    -0.229 N 
ATOM     11  H   UNL     1      34.817 -19.693 -20.703  0.00  0.00    +0.197 HD
ENDBRANCH   8  10
TORSDOF 1
ENDMDL
MODEL 3
REMARK VINA RESULT:      -5.8      4.021      5.419
REMARK  Name = 6789253
REMARK  1 active torsions:
REMARK  status: ('A' for Active; 'I' for Inactive)
REMARK    1  A    between atoms: C_8  and  N_10
REMARK                            x       y       z     vdW  Elec       q    Type
REMARK                         _______ _______ _______ _____ _____    ______ ____
ROOT
ATOM      1  N   UNL     1      34.722 -16.626 -23.421  0.00  0.00    -0.283 N 
ATOM      2  C   UNL     1      34.994 -17.250 -22.177  0.00  0.00    +0.071 C 
ATOM      3  C   UNL     1      34.355 -15.278 -23.438  0.00  0.00    +0.065 C 
ATOM      4  C   UNL     1      34.866 -16.413 -20.973  0.00  0.00    +0.016 C 
ATOM      5  C   UNL     1      34.819 -17.364 -24.684  0.00  0.00    +0.117 C 
ATOM      6  C   UNL     1      34.239 -14.519 -22.338  0.00  0.00    +0.016 C 
ATOM      7  C   UNL     1      34.508 -15.121 -21.053  0.00  0.00    +0.003 C 
ATOM      8  C   UNL     1      35.357 -18.536 -22.009  0.00  0.00    +0.113 C 
ENDROOT
BRANCH   8  10
ATOM      9  O   UNL     1      36.635 -19.501 -20.212  0.00  0.00    -0.088 OA
ATOM     10  N   UNL     1      35.578 -18.948 -20.668  0.00  0.00    -0.229 N 
ATOM     11  H   UNL     1      34.847 -18.791 -20.027  0.00  0.00    +0.197 HD
ENDBRANCH   8  10
TORSDOF 1
ENDMDL
MODEL 4
REMARK VINA RESULT:      -5.7      3.090      4.158
REMARK  Name = 6789253
REMARK  1 active torsions:
REMARK  status: ('A' for Active; 'I' for Inactive)
REMARK    1  A    between atoms: C_8  and  N_10
REMARK                            x       y       z     vdW  Elec       q    Type
REMARK                         _______ _______ _______ _____ _____    ______ ____
ROOT
ATOM      1  N   UNL     1      35.460 -20.658 -20.113  0.00  0.00    -0.283 N 
ATOM      2  C   UNL     1      35.145 -19.516 -20.894  0.00  0.00    +0.071 C 
ATOM      3  C   UNL     1      34.419 -21.419 -19.574  0.00  0.00    +0.065 C 
ATOM      4  C   UNL     1      33.717 -19.213 -21.081  0.00  0.00    +0.016 C 
ATOM      5  C   UNL     1      36.849 -21.055 -19.863  0.00  0.00    +0.117 C 
ATOM      6  C   UNL     1      33.119 -21.139 -19.746  0.00  0.00    +0.016 C 
ATOM      7  C   UNL     1      32.761 -19.984 -20.535  0.00  0.00    +0.003 C 
ATOM      8  C   UNL     1      36.040 -18.694 -21.473  0.00  0.00    +0.113 C 
ENDROOT
BRANCH   8  10
ATOM      9  O   UNL     1      35.441 -17.513 -23.484  0.00  0.00    -0.088 OA
ATOM     10  N   UNL     1      35.497 -17.609 -22.211  0.00  0.00    -0.229 N 
ATOM     11  H   UNL     1      35.128 -16.857 -21.692  0.00  0.00    +0.197 HD
ENDBRANCH   8  10
TORSDOF 1
ENDMDL
MODEL 5
REMARK VINA RESULT:      -5.7      5.098      6.527
REMARK  Name = 6789253
REMARK  1 active torsions:
REMARK  status: ('A' for Active; 'I' for Inactive)
REMARK    1  A    between atoms: C_8  and  N_10
REMARK                            x       y       z     vdW  Elec       q    Type
REMARK                         _______ _______ _______ _____ _____    ______ ____
ROOT
ATOM      1  N   UNL     1      34.738 -16.815 -21.862  0.00  0.00    -0.283 N 
ATOM      2  C   UNL     1      34.611 -16.924 -23.271  0.00  0.00    +0.071 C 
ATOM      3  C   UNL     1      34.983 -17.968 -21.112  0.00  0.00    +0.065 C 
ATOM      4  C   UNL     1      34.750 -18.271 -23.848  0.00  0.00    +0.016 C 
ATOM      5  C   UNL     1      34.618 -15.523 -21.182  0.00  0.00    +0.117 C 
ATOM      6  C   UNL     1      35.109 -19.194 -21.642  0.00  0.00    +0.016 C 
ATOM      7  C   UNL     1      34.986 -19.344 -23.073  0.00  0.00    +0.003 C 
ATOM      8  C   UNL     1      34.375 -15.903 -24.117  0.00  0.00    +0.113 C 
ENDROOT
BRANCH   8  10
ATOM      9  O   UNL     1      33.651 -15.600 -26.393  0.00  0.00    -0.088 OA
ATOM     10  N   UNL     1      34.285 -16.246 -25.493  0.00  0.00    -0.229 N 
ATOM     11  H   UNL     1      34.758 -17.061 -25.780  0.00  0.00    +0.197 HD
ENDBRANCH   8  10
TORSDOF 1
ENDMDL
MODEL 6
REMARK VINA RESULT:      -5.7      5.004      6.412
REMARK  Name = 6789253
REMARK  1 active torsions:
REMARK  status: ('A' for Active; 'I' for Inactive)
REMARK    1  A    between atoms: C_8  and  N_10
REMARK                            x       y       z     vdW  Elec       q    Type
REMARK                         _______ _______ _______ _____ _____    ______ ____
ROOT
ATOM      1  N   UNL     1      33.554 -15.234 -23.199  0.00  0.00    -0.283 N 
ATOM      2  C   UNL     1      34.083 -15.901 -22.064  0.00  0.00    +0.071 C 
ATOM      3  C   UNL     1      32.697 -14.147 -23.008  0.00  0.00    +0.065 C 
ATOM      4  C   UNL     1      33.680 -15.387 -20.744  0.00  0.00    +0.016 C 
ATOM      5  C   UNL     1      33.889 -15.659 -24.560  0.00  0.00    +0.117 C 
ATOM      6  C   UNL     1      32.332 -13.682 -21.804  0.00  0.00    +0.016 C 
ATOM      7  C   UNL     1      32.851 -14.336 -20.626  0.00  0.00    +0.003 C 
ATOM      8  C   UNL     1      34.917 -16.958 -22.095  0.00  0.00    +0.113 C 
ENDROOT
BRANCH   8  10
ATOM      9  O   UNL     1      35.983 -18.538 -20.625  0.00  0.00    -0.088 OA
ATOM     10  N   UNL     1      35.320 -17.467 -20.832  0.00  0.00    -0.229 N 
ATOM     11  H   UNL     1      35.064 -16.942 -20.038  0.00  0.00    +0.197 HD
ENDBRANCH   8  10
TORSDOF 1
ENDMDL
MODEL 7
REMARK VINA RESULT:      -5.6      6.662      8.202
REMARK  Name = 6789253
REMARK  1 active torsions:
REMARK  status: ('A' for Active; 'I' for Inactive)
REMARK    1  A    between atoms: C_8  and  N_10
REMARK                            x       y       z     vdW  Elec       q    Type
REMARK                         _______ _______ _______ _____ _____    ______ ____
ROOT
ATOM      1  N   UNL     1      36.458 -23.803 -13.874  0.00  0.00    -0.283 N 
ATOM      2  C   UNL     1      36.592 -25.162 -14.260  0.00  0.00    +0.071 C 
ATOM      3  C   UNL     1      37.163 -23.341 -12.760  0.00  0.00    +0.065 C 
ATOM      4  C   UNL     1      37.483 -25.999 -13.440  0.00  0.00    +0.016 C 
ATOM      5  C   UNL     1      35.599 -22.878 -14.619  0.00  0.00    +0.117 C 
ATOM      6  C   UNL     1      37.973 -24.108 -12.015  0.00  0.00    +0.016 C 
ATOM      7  C   UNL     1      38.135 -25.497 -12.378  0.00  0.00    +0.003 C 
ATOM      8  C   UNL     1      35.976 -25.743 -15.307  0.00  0.00    +0.113 C 
ENDROOT
BRANCH   8  10
ATOM      9  O   UNL     1      36.667 -27.660 -16.588  0.00  0.00    -0.088 OA
ATOM     10  N   UNL     1      36.259 -27.121 -15.505  0.00  0.00    -0.229 N 
ATOM     11  H   UNL     1      36.127 -27.718 -14.733  0.00  0.00    +0.197 HD
ENDBRANCH   8  10
TORSDOF 1
ENDMDL
MODEL 8
REMARK VINA RESULT:      -5.6      5.868      7.048
REMARK  Name = 6789253
REMARK  1 active torsions:
REMARK  status: ('A' for Active; 'I' for Inactive)
REMARK    1  A    between atoms: C_8  and  N_10
REMARK                            x       y       z     vdW  Elec       q    Type
REMARK                         _______ _______ _______ _____ _____    ______ ____
ROOT
ATOM      1  N   UNL     1      34.974 -16.949 -22.437  0.00  0.00    -0.283 N 
ATOM      2  C   UNL     1      34.336 -16.104 -23.381  0.00  0.00    +0.071 C 
ATOM      3  C   UNL     1      34.980 -16.579 -21.090  0.00  0.00    +0.065 C 
ATOM      4  C   UNL     1      33.715 -14.875 -22.859  0.00  0.00    +0.016 C 
ATOM      5  C   UNL     1      35.622 -18.199 -22.846  0.00  0.00    +0.117 C 
ATOM      6  C   UNL     1      34.414 -15.458 -20.618  0.00  0.00    +0.016 C 
ATOM      7  C   UNL     1      33.755 -14.573 -21.550  0.00  0.00    +0.003 C 
ATOM      8  C   UNL     1      34.252 -16.332 -24.706  0.00  0.00    +0.113 C 
ENDROOT
BRANCH   8  10
ATOM      9  O   UNL     1      33.509 -15.273 -26.736  0.00  0.00    -0.088 OA
ATOM     10  N   UNL     1      33.564 -15.346 -25.462  0.00  0.00    -0.229 N 
ATOM     11  H   UNL     1      33.083 -14.652 -24.955  0.00  0.00    +0.197 HD
ENDBRANCH   8  10
TORSDOF 1
ENDMDL
MODEL 9
REMARK VINA RESULT:      -5.6      3.459      4.986
REMARK  Name = 6789253
REMARK  1 active torsions:
REMARK  status: ('A' for Active; 'I' for Inactive)
REMARK    1  A    between atoms: C_8  and  N_10
REMARK                            x       y       z     vdW  Elec       q    Type
REMARK                         _______ _______ _______ _____ _____    ______ ____
ROOT
ATOM      1  N   UNL     1      34.243 -19.984 -20.665  0.00  0.00    -0.283 N 
ATOM      2  C   UNL     1      35.047 -19.018 -21.324  0.00  0.00    +0.071 C 
ATOM      3  C   UNL     1      34.861 -20.940 -19.854  0.00  0.00    +0.065 C 
ATOM      4  C   UNL     1      36.499 -19.097 -21.099  0.00  0.00    +0.016 C 
ATOM      5  C   UNL     1      32.786 -19.998 -20.816  0.00  0.00    +0.117 C 
ATOM      6  C   UNL     1      36.185 -21.010 -19.653  0.00  0.00    +0.016 C 
ATOM      7  C   UNL     1      37.034 -20.042 -20.307  0.00  0.00    +0.003 C 
ATOM      8  C   UNL     1      34.592 -18.041 -22.132  0.00  0.00    +0.113 C 
ENDROOT
BRANCH   8  10
ATOM      9  O   UNL     1      35.403 -15.983 -23.081  0.00  0.00    -0.088 OA
ATOM     10  N   UNL     1      35.580 -17.184 -22.685  0.00  0.00    -0.229 N 
ATOM     11  H   UNL     1      36.489 -17.552 -22.773  0.00  0.00    +0.197 HD
ENDBRANCH   8  10
TORSDOF 1
ENDMDL
