MODEL 1
REMARK VINA RESULT:      -7.1      0.000      0.000
REMARK  Name = 446874
REMARK  6 active torsions:
REMARK  status: ('A' for Active; 'I' for Inactive)
REMARK    1  A    between atoms: C_2  and  O_9
REMARK    2  A    between atoms: C_3  and  O_7
REMARK    3  A    between atoms: C_4  and  O_11
REMARK    4  A    between atoms: C_5  and  C_16
REMARK    5  A    between atoms: C_6  and  O_13
REMARK    6  A    between atoms: C_16  and  O_17
REMARK                            x       y       z     vdW  Elec       q    Type
REMARK                         _______ _______ _______ _____ _____    ______ ____
ROOT
ATOM      1  O   UNL     1      39.334 -24.529 -13.164  0.00  0.00    -0.317 OA
ATOM      2  C   UNL     1      36.750 -24.635 -14.416  0.00  0.00    +0.172 C 
ATOM      3  C   UNL     1      37.985 -25.284 -15.040  0.00  0.00    +0.183 C 
ATOM      4  C   UNL     1      37.137 -23.534 -13.427  0.00  0.00    +0.196 C 
ATOM      5  C   UNL     1      39.000 -25.656 -13.966  0.00  0.00    +0.245 C 
ATOM      6  C   UNL     1      38.209 -24.019 -12.451  0.00  0.00    +0.263 C 
ENDROOT
BRANCH   3   7
ATOM      7  O   UNL     1      37.592 -26.469 -15.729  0.00  0.00    -0.348 OA
ATOM      8  C   UNL     1      36.881 -27.351 -14.874  0.00  0.00    +0.174 C 
ENDBRANCH   3   7
BRANCH   2   9
ATOM      9  O   UNL     1      35.965 -24.075 -15.469  0.00  0.00    -0.379 OA
ATOM     10  H   UNL     1      35.782 -24.757 -16.134  0.00  0.00    +0.211 HD
ENDBRANCH   2   9
BRANCH   4  11
ATOM     11  O   UNL     1      35.987 -23.149 -12.674  0.00  0.00    -0.378 OA
ATOM     12  H   UNL     1      35.227 -23.687 -12.947  0.00  0.00    +0.211 HD
ENDBRANCH   4  11
BRANCH   6  13
ATOM     13  O   UNL     1      38.611 -22.907 -11.651  0.00  0.00    -0.358 OA
ATOM     14  H   UNL     1      38.597 -22.101 -12.188  0.00  0.00    +0.213 HD
ENDBRANCH   6  13
BRANCH   5  16
ATOM     15  O   UNL     1      41.240 -26.557 -13.977  0.00  0.00    -0.247 OA
ATOM     16  C   UNL     1      40.309 -26.042 -14.577  0.00  0.00    +0.344 C 
BRANCH  16  17
ATOM     17  O   UNL     1      40.327 -25.739 -15.898  0.00  0.00    -0.478 OA
ATOM     18  H   UNL     1      39.554 -25.850 -16.416  0.00  0.00    +0.295 HD
ENDBRANCH  16  17
ENDBRANCH   5  16
TORSDOF 6
ENDMDL
MODEL 2
REMARK VINA RESULT:      -6.7      1.899      2.264
REMARK  Name = 446874
REMARK  6 active torsions:
REMARK  status: ('A' for Active; 'I' for Inactive)
REMARK    1  A    between atoms: C_2  and  O_9
REMARK    2  A    between atoms: C_3  and  O_7
REMARK    3  A    between atoms: C_4  and  O_11
REMARK    4  A    between atoms: C_5  and  C_16
REMARK    5  A    between atoms: C_6  and  O_13
REMARK    6  A    between atoms: C_16  and  O_17
REMARK                            x       y       z     vdW  Elec       q    Type
REMARK                         _______ _______ _______ _____ _____    ______ ____
ROOT
ATOM      1  O   UNL     1      38.786 -23.811 -15.530  0.00  0.00    -0.317 OA
ATOM      2  C   UNL     1      36.374 -25.145 -14.715  0.00  0.00    +0.172 C 
ATOM      3  C   UNL     1      37.721 -25.865 -14.783  0.00  0.00    +0.183 C 
ATOM      4  C   UNL     1      36.362 -23.899 -15.602  0.00  0.00    +0.196 C 
ATOM      5  C   UNL     1      38.870 -24.881 -14.596  0.00  0.00    +0.245 C 
ATOM      6  C   UNL     1      37.601 -23.036 -15.361  0.00  0.00    +0.263 C 
ENDROOT
BRANCH   3   7
ATOM      7  O   UNL     1      37.781 -26.842 -13.746  0.00  0.00    -0.348 OA
ATOM      8  C   UNL     1      37.454 -26.277 -12.485  0.00  0.00    +0.174 C 
ENDBRANCH   3   7
BRANCH   2   9
ATOM      9  O   UNL     1      35.364 -26.053 -15.155  0.00  0.00    -0.379 OA
ATOM     10  H   UNL     1      34.557 -25.917 -14.634  0.00  0.00    +0.211 HD
ENDBRANCH   2   9
BRANCH   4  11
ATOM     11  O   UNL     1      35.207 -23.116 -15.302  0.00  0.00    -0.378 OA
ATOM     12  H   UNL     1      34.420 -23.684 -15.312  0.00  0.00    +0.211 HD
ENDBRANCH   4  11
BRANCH   6  13
ATOM     13  O   UNL     1      37.585 -21.969 -16.309  0.00  0.00    -0.358 OA
ATOM     14  H   UNL     1      37.697 -22.329 -17.203  0.00  0.00    +0.213 HD
ENDBRANCH   6  13
BRANCH   5  16
ATOM     15  O   UNL     1      41.077 -25.735 -14.121  0.00  0.00    -0.247 OA
ATOM     16  C   UNL     1      40.180 -25.521 -14.923  0.00  0.00    +0.344 C 
BRANCH  16  17
ATOM     17  O   UNL     1      40.245 -25.833 -16.240  0.00  0.00    -0.478 OA
ATOM     18  H   UNL     1      40.157 -26.725 -16.516  0.00  0.00    +0.295 HD
ENDBRANCH  16  17
ENDBRANCH   5  16
TORSDOF 6
ENDMDL
MODEL 3
REMARK VINA RESULT:      -6.6      1.738      3.416
REMARK  Name = 446874
REMARK  6 active torsions:
REMARK  status: ('A' for Active; 'I' for Inactive)
REMARK    1  A    between atoms: C_2  and  O_9
REMARK    2  A    between atoms: C_3  and  O_7
REMARK    3  A    between atoms: C_4  and  O_11
REMARK    4  A    between atoms: C_5  and  C_16
REMARK    5  A    between atoms: C_6  and  O_13
REMARK    6  A    between atoms: C_16  and  O_17
REMARK                            x       y       z     vdW  Elec       q    Type
REMARK                         _______ _______ _______ _____ _____    ______ ____
ROOT
ATOM      1  O   UNL     1      36.483 -25.000 -15.486  0.00  0.00    -0.317 OA
ATOM      2  C   UNL     1      35.535 -24.456 -12.829  0.00  0.00    +0.172 C 
ATOM      3  C   UNL     1      36.699 -25.410 -13.100  0.00  0.00    +0.183 C 
ATOM      4  C   UNL     1      34.649 -24.292 -14.065  0.00  0.00    +0.196 C 
ATOM      5  C   UNL     1      37.403 -25.046 -14.402  0.00  0.00    +0.245 C 
ATOM      6  C   UNL     1      35.486 -23.997 -15.310  0.00  0.00    +0.263 C 
ENDROOT
BRANCH   3   7
ATOM      7  O   UNL     1      37.637 -25.316 -12.030  0.00  0.00    -0.348 OA
ATOM      8  C   UNL     1      38.145 -23.997 -11.902  0.00  0.00    +0.174 C 
ENDBRANCH   3   7
BRANCH   2   9
ATOM      9  O   UNL     1      34.761 -24.996 -11.757  0.00  0.00    -0.379 OA
ATOM     10  H   UNL     1      34.087 -25.595 -12.114  0.00  0.00    +0.211 HD
ENDBRANCH   2   9
BRANCH   4  11
ATOM     11  O   UNL     1      33.751 -23.200 -13.861  0.00  0.00    -0.378 OA
ATOM     12  H   UNL     1      32.880 -23.542 -13.605  0.00  0.00    +0.211 HD
ENDBRANCH   4  11
BRANCH   6  13
ATOM     13  O   UNL     1      34.609 -23.986 -16.437  0.00  0.00    -0.358 OA
ATOM     14  H   UNL     1      33.983 -24.721 -16.366  0.00  0.00    +0.213 HD
ENDBRANCH   6  13
BRANCH   5  16
ATOM     15  O   UNL     1      38.213 -27.311 -14.592  0.00  0.00    -0.247 OA
ATOM     16  C   UNL     1      38.361 -26.118 -14.809  0.00  0.00    +0.344 C 
BRANCH  16  17
ATOM     17  O   UNL     1      39.428 -25.587 -15.454  0.00  0.00    -0.478 OA
ATOM     18  H   UNL     1      40.251 -25.505 -15.012  0.00  0.00    +0.295 HD
ENDBRANCH  16  17
ENDBRANCH   5  16
TORSDOF 6
ENDMDL
MODEL 4
REMARK VINA RESULT:      -6.6      1.627      5.033
REMARK  Name = 446874
REMARK  6 active torsions:
REMARK  status: ('A' for Active; 'I' for Inactive)
REMARK    1  A    between atoms: C_2  and  O_9
REMARK    2  A    between atoms: C_3  and  O_7
REMARK    3  A    between atoms: C_4  and  O_11
REMARK    4  A    between atoms: C_5  and  C_16
REMARK    5  A    between atoms: C_6  and  O_13
REMARK    6  A    between atoms: C_16  and  O_17
REMARK                            x       y       z     vdW  Elec       q    Type
REMARK                         _______ _______ _______ _____ _____    ______ ____
ROOT
ATOM      1  O   UNL     1      35.624 -25.483 -15.635  0.00  0.00    -0.317 OA
ATOM      2  C   UNL     1      37.695 -24.916 -13.726  0.00  0.00    +0.172 C 
ATOM      3  C   UNL     1      36.578 -23.919 -14.037  0.00  0.00    +0.183 C 
ATOM      4  C   UNL     1      37.884 -25.916 -14.868  0.00  0.00    +0.196 C 
ATOM      5  C   UNL     1      35.329 -24.643 -14.525  0.00  0.00    +0.245 C 
ATOM      6  C   UNL     1      36.548 -26.517 -15.304  0.00  0.00    +0.263 C 
ENDROOT
BRANCH   3   7
ATOM      7  O   UNL     1      36.255 -23.196 -12.851  0.00  0.00    -0.348 OA
ATOM      8  C   UNL     1      35.968 -24.074 -11.773  0.00  0.00    +0.174 C 
ENDBRANCH   3   7
BRANCH   2   9
ATOM      9  O   UNL     1      38.903 -24.179 -13.533  0.00  0.00    -0.379 OA
ATOM     10  H   UNL     1      39.036 -24.018 -12.586  0.00  0.00    +0.211 HD
ENDBRANCH   2   9
BRANCH   4  11
ATOM     11  O   UNL     1      38.730 -26.979 -14.429  0.00  0.00    -0.378 OA
ATOM     12  H   UNL     1      39.111 -26.754 -13.565  0.00  0.00    +0.211 HD
ENDBRANCH   4  11
BRANCH   6  13
ATOM     13  O   UNL     1      36.786 -27.335 -16.449  0.00  0.00    -0.358 OA
ATOM     14  H   UNL     1      35.977 -27.392 -16.979  0.00  0.00    +0.213 HD
ENDBRANCH   6  13
BRANCH   5  16
ATOM     15  O   UNL     1      34.223 -23.382 -16.260  0.00  0.00    -0.247 OA
ATOM     16  C   UNL     1      34.333 -23.677 -15.080  0.00  0.00    +0.344 C 
BRANCH  16  17
ATOM     17  O   UNL     1      33.562 -23.164 -14.090  0.00  0.00    -0.478 OA
ATOM     18  H   UNL     1      33.908 -23.075 -13.224  0.00  0.00    +0.295 HD
ENDBRANCH  16  17
ENDBRANCH   5  16
TORSDOF 6
ENDMDL
MODEL 5
REMARK VINA RESULT:      -6.5      1.946      4.061
REMARK  Name = 446874
REMARK  6 active torsions:
REMARK  status: ('A' for Active; 'I' for Inactive)
REMARK    1  A    between atoms: C_2  and  O_9
REMARK    2  A    between atoms: C_3  and  O_7
REMARK    3  A    between atoms: C_4  and  O_11
REMARK    4  A    between atoms: C_5  and  C_16
REMARK    5  A    between atoms: C_6  and  O_13
REMARK    6  A    between atoms: C_16  and  O_17
REMARK                            x       y       z     vdW  Elec       q    Type
REMARK                         _______ _______ _______ _____ _____    ______ ____
ROOT
ATOM      1  O   UNL     1      34.995 -23.808 -13.205  0.00  0.00    -0.317 OA
ATOM      2  C   UNL     1      37.081 -24.025 -15.169  0.00  0.00    +0.172 C 
ATOM      3  C   UNL     1      37.325 -24.306 -13.686  0.00  0.00    +0.183 C 
ATOM      4  C   UNL     1      35.851 -23.139 -15.374  0.00  0.00    +0.196 C 
ATOM      5  C   UNL     1      36.038 -24.754 -13.003  0.00  0.00    +0.245 C 
ATOM      6  C   UNL     1      34.653 -23.663 -14.582  0.00  0.00    +0.263 C 
ENDROOT
BRANCH   3   7
ATOM      7  O   UNL     1      38.295 -25.344 -13.561  0.00  0.00    -0.348 OA
ATOM      8  C   UNL     1      37.912 -26.499 -14.292  0.00  0.00    +0.174 C 
ENDBRANCH   3   7
BRANCH   2   9
ATOM      9  O   UNL     1      38.236 -23.366 -15.690  0.00  0.00    -0.379 OA
ATOM     10  H   UNL     1      38.551 -23.839 -16.476  0.00  0.00    +0.211 HD
ENDBRANCH   2   9
BRANCH   4  11
ATOM     11  O   UNL     1      35.502 -23.129 -16.759  0.00  0.00    -0.378 OA
ATOM     12  H   UNL     1      35.169 -24.003 -17.014  0.00  0.00    +0.211 HD
ENDBRANCH   4  11
BRANCH   6  13
ATOM     13  O   UNL     1      33.590 -22.720 -14.718  0.00  0.00    -0.358 OA
ATOM     14  H   UNL     1      33.629 -22.315 -15.598  0.00  0.00    +0.213 HD
ENDBRANCH   6  13
BRANCH   5  16
ATOM     15  O   UNL     1      35.345 -25.129 -10.721  0.00  0.00    -0.247 OA
ATOM     16  C   UNL     1      36.201 -24.773 -11.517  0.00  0.00    +0.344 C 
BRANCH  16  17
ATOM     17  O   UNL     1      37.435 -24.336 -11.165  0.00  0.00    -0.478 OA
ATOM     18  H   UNL     1      38.187 -24.870 -11.335  0.00  0.00    +0.295 HD
ENDBRANCH  16  17
ENDBRANCH   5  16
TORSDOF 6
ENDMDL
MODEL 6
REMARK VINA RESULT:      -6.4      2.531      4.944
REMARK  Name = 446874
REMARK  6 active torsions:
REMARK  status: ('A' for Active; 'I' for Inactive)
REMARK    1  A    between atoms: C_2  and  O_9
REMARK    2  A    between atoms: C_3  and  O_7
REMARK    3  A    between atoms: C_4  and  O_11
REMARK    4  A    between atoms: C_5  and  C_16
REMARK    5  A    between atoms: C_6  and  O_13
REMARK    6  A    between atoms: C_16  and  O_17
REMARK                            x       y       z     vdW  Elec       q    Type
REMARK                         _______ _______ _______ _____ _____    ______ ____
ROOT
ATOM      1  O   UNL     1      34.296 -24.605 -12.387  0.00  0.00    -0.317 OA
ATOM      2  C   UNL     1      36.742 -24.967 -13.852  0.00  0.00    +0.172 C 
ATOM      3  C   UNL     1      35.379 -24.913 -14.542  0.00  0.00    +0.183 C 
ATOM      4  C   UNL     1      36.606 -25.348 -12.377  0.00  0.00    +0.196 C 
ATOM      5  C   UNL     1      34.387 -24.103 -13.716  0.00  0.00    +0.245 C 
ATOM      6  C   UNL     1      35.533 -24.507 -11.684  0.00  0.00    +0.263 C 
ENDROOT
BRANCH   3   7
ATOM      7  O   UNL     1      35.526 -24.293 -15.817  0.00  0.00    -0.348 OA
ATOM      8  C   UNL     1      36.117 -23.007 -15.702  0.00  0.00    +0.174 C 
ENDBRANCH   3   7
BRANCH   2   9
ATOM      9  O   UNL     1      37.540 -25.941 -14.524  0.00  0.00    -0.379 OA
ATOM     10  H   UNL     1      37.704 -25.653 -15.436  0.00  0.00    +0.211 HD
ENDBRANCH   2   9
BRANCH   4  11
ATOM     11  O   UNL     1      37.850 -25.120 -11.713  0.00  0.00    -0.378 OA
ATOM     12  H   UNL     1      38.580 -25.279 -12.332  0.00  0.00    +0.211 HD
ENDBRANCH   4  11
BRANCH   6  13
ATOM     13  O   UNL     1      35.373 -25.004 -10.356  0.00  0.00    -0.358 OA
ATOM     14  H   UNL     1      35.875 -24.448  -9.741  0.00  0.00    +0.213 HD
ENDBRANCH   6  13
BRANCH   5  16
ATOM     15  O   UNL     1      32.407 -23.449 -14.932  0.00  0.00    -0.247 OA
ATOM     16  C   UNL     1      32.997 -24.265 -14.240  0.00  0.00    +0.344 C 
BRANCH  16  17
ATOM     17  O   UNL     1      32.470 -25.448 -13.839  0.00  0.00    -0.478 OA
ATOM     18  H   UNL     1      32.049 -26.009 -14.462  0.00  0.00    +0.295 HD
ENDBRANCH  16  17
ENDBRANCH   5  16
TORSDOF 6
ENDMDL
MODEL 7
REMARK VINA RESULT:      -6.3      1.913      3.677
REMARK  Name = 446874
REMARK  6 active torsions:
REMARK  status: ('A' for Active; 'I' for Inactive)
REMARK    1  A    between atoms: C_2  and  O_9
REMARK    2  A    between atoms: C_3  and  O_7
REMARK    3  A    between atoms: C_4  and  O_11
REMARK    4  A    between atoms: C_5  and  C_16
REMARK    5  A    between atoms: C_6  and  O_13
REMARK    6  A    between atoms: C_16  and  O_17
REMARK                            x       y       z     vdW  Elec       q    Type
REMARK                         _______ _______ _______ _____ _____    ______ ____
ROOT
ATOM      1  O   UNL     1      35.635 -23.399 -13.799  0.00  0.00    -0.317 OA
ATOM      2  C   UNL     1      37.152 -25.104 -12.054  0.00  0.00    +0.172 C 
ATOM      3  C   UNL     1      37.609 -24.780 -13.476  0.00  0.00    +0.183 C 
ATOM      4  C   UNL     1      35.646 -24.897 -11.891  0.00  0.00    +0.196 C 
ATOM      5  C   UNL     1      37.051 -23.435 -13.929  0.00  0.00    +0.245 C 
ATOM      6  C   UNL     1      35.211 -23.540 -12.445  0.00  0.00    +0.263 C 
ENDROOT
BRANCH   3   7
ATOM      7  O   UNL     1      39.034 -24.717 -13.506  0.00  0.00    -0.348 OA
ATOM      8  C   UNL     1      39.576 -25.702 -14.372  0.00  0.00    +0.174 C 
ENDBRANCH   3   7
BRANCH   2   9
ATOM      9  O   UNL     1      37.478 -26.468 -11.785  0.00  0.00    -0.379 OA
ATOM     10  H   UNL     1      37.955 -26.842 -12.542  0.00  0.00    +0.211 HD
ENDBRANCH   2   9
BRANCH   4  11
ATOM     11  O   UNL     1      35.310 -24.941 -10.504  0.00  0.00    -0.378 OA
ATOM     12  H   UNL     1      34.470 -25.413 -10.389  0.00  0.00    +0.211 HD
ENDBRANCH   4  11
BRANCH   6  13
ATOM     13  O   UNL     1      33.786 -23.474 -12.377  0.00  0.00    -0.358 OA
ATOM     14  H   UNL     1      33.525 -22.797 -11.734  0.00  0.00    +0.213 HD
ENDBRANCH   6  13
BRANCH   5  16
ATOM     15  O   UNL     1      38.090 -22.476 -15.885  0.00  0.00    -0.247 OA
ATOM     16  C   UNL     1      37.267 -23.234 -15.395  0.00  0.00    +0.344 C 
BRANCH  16  17
ATOM     17  O   UNL     1      36.419 -24.008 -16.114  0.00  0.00    -0.478 OA
ATOM     18  H   UNL     1      36.668 -24.879 -16.354  0.00  0.00    +0.295 HD
ENDBRANCH  16  17
ENDBRANCH   5  16
TORSDOF 6
ENDMDL
MODEL 8
REMARK VINA RESULT:      -6.2     13.711     15.607
REMARK  Name = 446874
REMARK  6 active torsions:
REMARK  status: ('A' for Active; 'I' for Inactive)
REMARK    1  A    between atoms: C_2  and  O_9
REMARK    2  A    between atoms: C_3  and  O_7
REMARK    3  A    between atoms: C_4  and  O_11
REMARK    4  A    between atoms: C_5  and  C_16
REMARK    5  A    between atoms: C_6  and  O_13
REMARK    6  A    between atoms: C_16  and  O_17
REMARK                            x       y       z     vdW  Elec       q    Type
REMARK                         _______ _______ _______ _____ _____    ______ ____
ROOT
ATOM      1  O   UNL     1      33.275 -13.918 -25.160  0.00  0.00    -0.317 OA
ATOM      2  C   UNL     1      34.516 -16.028 -23.655  0.00  0.00    +0.172 C 
ATOM      3  C   UNL     1      34.395 -14.604 -23.114  0.00  0.00    +0.183 C 
ATOM      4  C   UNL     1      34.424 -16.055 -25.182  0.00  0.00    +0.196 C 
ATOM      5  C   UNL     1      33.203 -13.888 -23.739  0.00  0.00    +0.245 C 
ATOM      6  C   UNL     1      33.226 -15.246 -25.678  0.00  0.00    +0.263 C 
ENDROOT
BRANCH   3   7
ATOM      7  O   UNL     1      34.208 -14.656 -21.701  0.00  0.00    -0.348 OA
ATOM      8  C   UNL     1      33.039 -15.386 -21.361  0.00  0.00    +0.174 C 
ENDBRANCH   3   7
BRANCH   2   9
ATOM      9  O   UNL     1      35.780 -16.551 -23.245  0.00  0.00    -0.379 OA
ATOM     10  H   UNL     1      35.951 -16.300 -22.324  0.00  0.00    +0.211 HD
ENDBRANCH   2   9
BRANCH   4  11
ATOM     11  O   UNL     1      34.266 -17.404 -25.622  0.00  0.00    -0.378 OA
ATOM     12  H   UNL     1      34.320 -17.437 -26.590  0.00  0.00    +0.211 HD
ENDBRANCH   4  11
BRANCH   6  13
ATOM     13  O   UNL     1      33.280 -15.209 -27.104  0.00  0.00    -0.358 OA
ATOM     14  H   UNL     1      32.467 -14.807 -27.447  0.00  0.00    +0.213 HD
ENDBRANCH   6  13
BRANCH   5  16
ATOM     15  O   UNL     1      32.409 -11.841 -22.738  0.00  0.00    -0.247 OA
ATOM     16  C   UNL     1      33.231 -12.427 -23.425  0.00  0.00    +0.344 C 
BRANCH  16  17
ATOM     17  O   UNL     1      34.299 -11.833 -24.010  0.00  0.00    -0.478 OA
ATOM     18  H   UNL     1      34.843 -12.319 -24.598  0.00  0.00    +0.295 HD
ENDBRANCH  16  17
ENDBRANCH   5  16
TORSDOF 6
ENDMDL
MODEL 9
REMARK VINA RESULT:      -6.1     12.274     14.027
REMARK  Name = 446874
REMARK  6 active torsions:
REMARK  status: ('A' for Active; 'I' for Inactive)
REMARK    1  A    between atoms: C_2  and  O_9
REMARK    2  A    between atoms: C_3  and  O_7
REMARK    3  A    between atoms: C_4  and  O_11
REMARK    4  A    between atoms: C_5  and  C_16
REMARK    5  A    between atoms: C_6  and  O_13
REMARK    6  A    between atoms: C_16  and  O_17
REMARK                            x       y       z     vdW  Elec       q    Type
REMARK                         _______ _______ _______ _____ _____    ______ ____
ROOT
ATOM      1  O   UNL     1      34.623 -17.350 -23.535  0.00  0.00    -0.317 OA
ATOM      2  C   UNL     1      33.636 -14.716 -24.125  0.00  0.00    +0.172 C 
ATOM      3  C   UNL     1      33.673 -15.273 -22.701  0.00  0.00    +0.183 C 
ATOM      4  C   UNL     1      33.648 -15.839 -25.163  0.00  0.00    +0.196 C 
ATOM      5  C   UNL     1      34.769 -16.323 -22.561  0.00  0.00    +0.245 C 
ATOM      6  C   UNL     1      34.750 -16.856 -24.867  0.00  0.00    +0.263 C 
ENDROOT
BRANCH   3   7
ATOM      7  O   UNL     1      33.939 -14.209 -21.790  0.00  0.00    -0.348 OA
ATOM      8  C   UNL     1      32.805 -13.920 -20.988  0.00  0.00    +0.174 C 
ENDBRANCH   3   7
BRANCH   2   9
ATOM      9  O   UNL     1      32.441 -13.947 -24.267  0.00  0.00    -0.379 OA
ATOM     10  H   UNL     1      31.882 -14.070 -23.484  0.00  0.00    +0.211 HD
ENDBRANCH   2   9
BRANCH   4  11
ATOM     11  O   UNL     1      33.888 -15.283 -26.457  0.00  0.00    -0.378 OA
ATOM     12  H   UNL     1      33.058 -15.258 -26.957  0.00  0.00    +0.211 HD
ENDBRANCH   4  11
BRANCH   6  13
ATOM     13  O   UNL     1      34.617 -17.932 -25.795  0.00  0.00    -0.358 OA
ATOM     14  H   UNL     1      34.022 -17.667 -26.513  0.00  0.00    +0.213 HD
ENDBRANCH   6  13
BRANCH   5  16
ATOM     15  O   UNL     1      34.142 -18.165 -21.133  0.00  0.00    -0.247 OA
ATOM     16  C   UNL     1      34.643 -17.058 -21.266  0.00  0.00    +0.344 C 
BRANCH  16  17
ATOM     17  O   UNL     1      35.159 -16.327 -20.248  0.00  0.00    -0.478 OA
ATOM     18  H   UNL     1      35.680 -15.570 -20.432  0.00  0.00    +0.295 HD
ENDBRANCH  16  17
ENDBRANCH   5  16
TORSDOF 6
ENDMDL
