MODEL 1
REMARK VINA RESULT:      -5.6      0.000      0.000
REMARK  Name = 5287900
REMARK  2 active torsions:
REMARK  status: ('A' for Active; 'I' for Inactive)
REMARK    1  A    between atoms: C_2  and  O_8
REMARK    2  A    between atoms: C_6  and  O_10
REMARK                            x       y       z     vdW  Elec       q    Type
REMARK                         _______ _______ _______ _____ _____    ______ ____
ROOT
ATOM      1  O   UNL     1      39.198 -24.394 -13.094  0.00  0.00    -0.331 OA
ATOM      2  C   UNL     1      37.861 -25.289 -14.917  0.00  0.00    +0.138 C 
ATOM      3  C   UNL     1      38.979 -25.556 -13.901  0.00  0.00    +0.144 C 
ATOM      4  C   UNL     1      36.591 -24.825 -14.207  0.00  0.00    +0.037 C 
ATOM      5  C   UNL     1      36.893 -23.674 -13.259  0.00  0.00    +0.064 C 
ATOM      6  C   UNL     1      38.049 -24.031 -12.329  0.00  0.00    +0.232 C 
ATOM      7  C   UNL     1      40.304 -25.894 -14.576  0.00  0.00    +0.035 C 
ENDROOT
BRANCH   2   8
ATOM      8  O   UNL     1      37.553 -26.464 -15.658  0.00  0.00    -0.382 OA
ATOM      9  H   UNL     1      36.874 -26.973 -15.188  0.00  0.00    +0.210 HD
ENDBRANCH   2   8
BRANCH   6  10
ATOM     10  O   UNL     1      38.329 -22.893 -11.521  0.00  0.00    -0.360 OA
ATOM     11  H   UNL     1      38.420 -23.167 -10.595  0.00  0.00    +0.213 HD
ENDBRANCH   6  10
TORSDOF 2
ENDMDL
MODEL 2
REMARK VINA RESULT:      -5.4     12.233     12.896
REMARK  Name = 5287900
REMARK  2 active torsions:
REMARK  status: ('A' for Active; 'I' for Inactive)
REMARK    1  A    between atoms: C_2  and  O_8
REMARK    2  A    between atoms: C_6  and  O_10
REMARK                            x       y       z     vdW  Elec       q    Type
REMARK                         _______ _______ _______ _____ _____    ______ ____
ROOT
ATOM      1  O   UNL     1      34.908 -16.629 -22.161  0.00  0.00    -0.331 OA
ATOM      2  C   UNL     1      34.384 -17.043 -24.500  0.00  0.00    +0.138 C 
ATOM      3  C   UNL     1      35.022 -16.088 -23.482  0.00  0.00    +0.144 C 
ATOM      4  C   UNL     1      34.999 -18.437 -24.386  0.00  0.00    +0.037 C 
ATOM      5  C   UNL     1      34.978 -18.919 -22.942  0.00  0.00    +0.064 C 
ATOM      6  C   UNL     1      35.592 -17.873 -22.016  0.00  0.00    +0.232 C 
ATOM      7  C   UNL     1      34.346 -14.721 -23.471  0.00  0.00    +0.035 C 
ENDROOT
BRANCH   2   8
ATOM      8  O   UNL     1      34.580 -16.578 -25.829  0.00  0.00    -0.382 OA
ATOM      9  H   UNL     1      34.470 -17.316 -26.449  0.00  0.00    +0.210 HD
ENDBRANCH   2   8
BRANCH   6  10
ATOM     10  O   UNL     1      35.476 -18.351 -20.679  0.00  0.00    -0.360 OA
ATOM     11  H   UNL     1      36.357 -18.399 -20.276  0.00  0.00    +0.213 HD
ENDBRANCH   6  10
TORSDOF 2
ENDMDL
MODEL 3
REMARK VINA RESULT:      -5.3      1.910      3.357
REMARK  Name = 5287900
REMARK  2 active torsions:
REMARK  status: ('A' for Active; 'I' for Inactive)
REMARK    1  A    between atoms: C_2  and  O_8
REMARK    2  A    between atoms: C_6  and  O_10
REMARK                            x       y       z     vdW  Elec       q    Type
REMARK                         _______ _______ _______ _____ _____    ______ ____
ROOT
ATOM      1  O   UNL     1      38.096 -23.501 -13.761  0.00  0.00    -0.331 OA
ATOM      2  C   UNL     1      37.306 -25.355 -12.399  0.00  0.00    +0.138 C 
ATOM      3  C   UNL     1      37.083 -23.899 -12.830  0.00  0.00    +0.144 C 
ATOM      4  C   UNL     1      37.369 -26.272 -13.620  0.00  0.00    +0.037 C 
ATOM      5  C   UNL     1      38.361 -25.739 -14.643  0.00  0.00    +0.064 C 
ATOM      6  C   UNL     1      38.074 -24.275 -14.960  0.00  0.00    +0.232 C 
ATOM      7  C   UNL     1      37.147 -22.933 -11.652  0.00  0.00    +0.035 C 
ENDROOT
BRANCH   2   8
ATOM      8  O   UNL     1      36.252 -25.806 -11.558  0.00  0.00    -0.382 OA
ATOM      9  H   UNL     1      35.442 -25.906 -12.081  0.00  0.00    +0.210 HD
ENDBRANCH   2   8
BRANCH   6  10
ATOM     10  O   UNL     1      39.076 -23.818 -15.864  0.00  0.00    -0.360 OA
ATOM     11  H   UNL     1      39.525 -23.046 -15.486  0.00  0.00    +0.213 HD
ENDBRANCH   6  10
TORSDOF 2
ENDMDL
MODEL 4
REMARK VINA RESULT:      -5.3     14.000     14.777
REMARK  Name = 5287900
REMARK  2 active torsions:
REMARK  status: ('A' for Active; 'I' for Inactive)
REMARK    1  A    between atoms: C_2  and  O_8
REMARK    2  A    between atoms: C_6  and  O_10
REMARK                            x       y       z     vdW  Elec       q    Type
REMARK                         _______ _______ _______ _____ _____    ______ ____
ROOT
ATOM      1  O   UNL     1      33.462 -16.691 -25.686  0.00  0.00    -0.331 OA
ATOM      2  C   UNL     1      34.639 -16.688 -23.558  0.00  0.00    +0.138 C 
ATOM      3  C   UNL     1      34.612 -17.203 -25.003  0.00  0.00    +0.144 C 
ATOM      4  C   UNL     1      34.576 -15.162 -23.531  0.00  0.00    +0.037 C 
ATOM      5  C   UNL     1      33.418 -14.656 -24.378  0.00  0.00    +0.064 C 
ATOM      6  C   UNL     1      33.464 -15.267 -25.775  0.00  0.00    +0.232 C 
ATOM      7  C   UNL     1      34.539 -18.724 -25.073  0.00  0.00    +0.035 C 
ENDROOT
BRANCH   2   8
ATOM      8  O   UNL     1      35.827 -17.096 -22.892  0.00  0.00    -0.382 OA
ATOM      9  H   UNL     1      36.270 -17.784 -23.414  0.00  0.00    +0.210 HD
ENDBRANCH   2   8
BRANCH   6  10
ATOM     10  O   UNL     1      32.320 -14.812 -26.490  0.00  0.00    -0.360 OA
ATOM     11  H   UNL     1      32.603 -14.361 -27.301  0.00  0.00    +0.213 HD
ENDBRANCH   6  10
TORSDOF 2
ENDMDL
MODEL 5
REMARK VINA RESULT:      -5.3     17.179     18.115
REMARK  Name = 5287900
REMARK  2 active torsions:
REMARK  status: ('A' for Active; 'I' for Inactive)
REMARK    1  A    between atoms: C_2  and  O_8
REMARK    2  A    between atoms: C_6  and  O_10
REMARK                            x       y       z     vdW  Elec       q    Type
REMARK                         _______ _______ _______ _____ _____    ______ ____
ROOT
ATOM      1  O   UNL     1      32.386  -9.231 -19.529  0.00  0.00    -0.331 OA
ATOM      2  C   UNL     1      31.704 -10.345 -21.581  0.00  0.00    +0.138 C 
ATOM      3  C   UNL     1      31.427 -10.138 -20.085  0.00  0.00    +0.144 C 
ATOM      4  C   UNL     1      31.730  -9.004 -22.312  0.00  0.00    +0.037 C 
ATOM      5  C   UNL     1      32.661  -8.025 -21.610  0.00  0.00    +0.064 C 
ATOM      6  C   UNL     1      32.325  -7.935 -20.124  0.00  0.00    +0.232 C 
ATOM      7  C   UNL     1      31.524 -11.438 -19.296  0.00  0.00    +0.035 C 
ENDROOT
BRANCH   2   8
ATOM      8  O   UNL     1      30.701 -11.157 -22.178  0.00  0.00    -0.382 OA
ATOM      9  H   UNL     1      30.680 -10.995 -23.134  0.00  0.00    +0.210 HD
ENDBRANCH   2   8
BRANCH   6  10
ATOM     10  O   UNL     1      33.273  -7.064 -19.514  0.00  0.00    -0.360 OA
ATOM     11  H   UNL     1      33.354  -6.253 -20.041  0.00  0.00    +0.213 HD
ENDBRANCH   6  10
TORSDOF 2
ENDMDL
MODEL 6
REMARK VINA RESULT:      -5.3     10.971     11.427
REMARK  Name = 5287900
REMARK  2 active torsions:
REMARK  status: ('A' for Active; 'I' for Inactive)
REMARK    1  A    between atoms: C_2  and  O_8
REMARK    2  A    between atoms: C_6  and  O_10
REMARK                            x       y       z     vdW  Elec       q    Type
REMARK                         _______ _______ _______ _____ _____    ______ ____
ROOT
ATOM      1  O   UNL     1      35.299 -17.429 -20.669  0.00  0.00    -0.331 OA
ATOM      2  C   UNL     1      35.354 -18.356 -22.918  0.00  0.00    +0.138 C 
ATOM      3  C   UNL     1      34.980 -18.588 -21.447  0.00  0.00    +0.144 C 
ATOM      4  C   UNL     1      34.679 -17.093 -23.449  0.00  0.00    +0.037 C 
ATOM      5  C   UNL     1      34.935 -15.914 -22.521  0.00  0.00    +0.064 C 
ATOM      6  C   UNL     1      34.573 -16.273 -21.083  0.00  0.00    +0.232 C 
ATOM      7  C   UNL     1      35.736 -19.764 -20.839  0.00  0.00    +0.035 C 
ENDROOT
BRANCH   2   8
ATOM      8  O   UNL     1      34.948 -19.451 -23.728  0.00  0.00    -0.382 OA
ATOM      9  H   UNL     1      33.985 -19.551 -23.677  0.00  0.00    +0.210 HD
ENDBRANCH   2   8
BRANCH   6  10
ATOM     10  O   UNL     1      34.901 -15.159 -20.258  0.00  0.00    -0.360 OA
ATOM     11  H   UNL     1      34.269 -14.441 -20.418  0.00  0.00    +0.213 HD
ENDBRANCH   6  10
TORSDOF 2
ENDMDL
MODEL 7
REMARK VINA RESULT:      -5.3     10.973     11.803
REMARK  Name = 5287900
REMARK  2 active torsions:
REMARK  status: ('A' for Active; 'I' for Inactive)
REMARK    1  A    between atoms: C_2  and  O_8
REMARK    2  A    between atoms: C_6  and  O_10
REMARK                            x       y       z     vdW  Elec       q    Type
REMARK                         _______ _______ _______ _____ _____    ______ ____
ROOT
ATOM      1  O   UNL     1      34.211 -17.866 -20.918  0.00  0.00    -0.331 OA
ATOM      2  C   UNL     1      34.877 -16.939 -23.066  0.00  0.00    +0.138 C 
ATOM      3  C   UNL     1      34.944 -16.803 -21.539  0.00  0.00    +0.144 C 
ATOM      4  C   UNL     1      35.367 -18.318 -23.503  0.00  0.00    +0.037 C 
ATOM      5  C   UNL     1      34.657 -19.415 -22.724  0.00  0.00    +0.064 C 
ATOM      6  C   UNL     1      34.747 -19.154 -21.223  0.00  0.00    +0.232 C 
ATOM      7  C   UNL     1      34.340 -15.492 -21.049  0.00  0.00    +0.035 C 
ENDROOT
BRANCH   2   8
ATOM      8  O   UNL     1      35.686 -15.957 -23.702  0.00  0.00    -0.382 OA
ATOM      9  H   UNL     1      36.598 -16.033 -23.382  0.00  0.00    +0.210 HD
ENDBRANCH   2   8
BRANCH   6  10
ATOM     10  O   UNL     1      34.005 -20.170 -20.557  0.00  0.00    -0.360 OA
ATOM     11  H   UNL     1      33.477 -19.773 -19.847  0.00  0.00    +0.213 HD
ENDBRANCH   6  10
TORSDOF 2
ENDMDL
MODEL 8
REMARK VINA RESULT:      -5.2     12.410     13.235
REMARK  Name = 5287900
REMARK  2 active torsions:
REMARK  status: ('A' for Active; 'I' for Inactive)
REMARK    1  A    between atoms: C_2  and  O_8
REMARK    2  A    between atoms: C_6  and  O_10
REMARK                            x       y       z     vdW  Elec       q    Type
REMARK                         _______ _______ _______ _____ _____    ______ ____
ROOT
ATOM      1  O   UNL     1      34.767 -17.649 -23.653  0.00  0.00    -0.331 OA
ATOM      2  C   UNL     1      34.428 -16.217 -21.716  0.00  0.00    +0.138 C 
ATOM      3  C   UNL     1      35.250 -17.355 -22.338  0.00  0.00    +0.144 C 
ATOM      4  C   UNL     1      34.434 -14.992 -22.627  0.00  0.00    +0.037 C 
ATOM      5  C   UNL     1      34.043 -15.373 -24.047  0.00  0.00    +0.064 C 
ATOM      6  C   UNL     1      34.890 -16.541 -24.544  0.00  0.00    +0.232 C 
ATOM      7  C   UNL     1      35.161 -18.641 -21.524  0.00  0.00    +0.035 C 
ENDROOT
BRANCH   2   8
ATOM      8  O   UNL     1      34.957 -15.836 -20.453  0.00  0.00    -0.382 OA
ATOM      9  H   UNL     1      34.653 -14.941 -20.232  0.00  0.00    +0.210 HD
ENDBRANCH   2   8
BRANCH   6  10
ATOM     10  O   UNL     1      34.428 -16.895 -25.844  0.00  0.00    -0.360 OA
ATOM     11  H   UNL     1      35.123 -17.383 -26.313  0.00  0.00    +0.213 HD
ENDBRANCH   6  10
TORSDOF 2
ENDMDL
MODEL 9
REMARK VINA RESULT:      -5.2      7.836      8.693
REMARK  Name = 5287900
REMARK  2 active torsions:
REMARK  status: ('A' for Active; 'I' for Inactive)
REMARK    1  A    between atoms: C_2  and  O_8
REMARK    2  A    between atoms: C_6  and  O_10
REMARK                            x       y       z     vdW  Elec       q    Type
REMARK                         _______ _______ _______ _____ _____    ______ ____
ROOT
ATOM      1  O   UNL     1      35.621 -21.093 -19.442  0.00  0.00    -0.331 OA
ATOM      2  C   UNL     1      34.302 -19.539 -20.769  0.00  0.00    +0.138 C 
ATOM      3  C   UNL     1      35.601 -20.351 -20.666  0.00  0.00    +0.144 C 
ATOM      4  C   UNL     1      33.087 -20.453 -20.621  0.00  0.00    +0.037 C 
ATOM      5  C   UNL     1      33.212 -21.319 -19.377  0.00  0.00    +0.064 C 
ATOM      6  C   UNL     1      34.557 -22.041 -19.356  0.00  0.00    +0.232 C 
ATOM      7  C   UNL     1      36.839 -19.461 -20.676  0.00  0.00    +0.035 C 
ENDROOT
BRANCH   2   8
ATOM      8  O   UNL     1      34.212 -18.878 -22.025  0.00  0.00    -0.382 OA
ATOM      9  H   UNL     1      35.038 -18.402 -22.200  0.00  0.00    +0.210 HD
ENDBRANCH   2   8
BRANCH   6  10
ATOM     10  O   UNL     1      34.642 -22.774 -18.138  0.00  0.00    -0.360 OA
ATOM     11  H   UNL     1      35.136 -23.594 -18.288  0.00  0.00    +0.213 HD
ENDBRANCH   6  10
TORSDOF 2
ENDMDL
