MODEL 1
REMARK VINA RESULT:      -9.4      0.000      0.000
REMARK  Name = 3899
REMARK  3 active torsions:
REMARK  status: ('A' for Active; 'I' for Inactive)
REMARK    1  A    between atoms: N_2  and  C_11
REMARK    2  A    between atoms: C_3  and  C_7
REMARK    3  A    between atoms: C_12  and  C_20
REMARK                            x       y       z     vdW  Elec       q    Type
REMARK                         _______ _______ _______ _____ _____    ______ ____
ROOT
ATOM      1  O   UNL     1      34.997 -16.180 -20.514  0.00  0.00    -0.270 OA
ATOM      2  N   UNL     1      34.026 -17.758 -21.939  0.00  0.00    -0.280 N 
ATOM      3  C   UNL     1      34.480 -16.474 -21.588  0.00  0.00    +0.254 C 
ATOM      4  H   UNL     1      33.632 -17.843 -22.838  0.00  0.00    +0.155 HD
ENDROOT
BRANCH   3   7
ATOM      5  O   UNL     1      34.236 -14.515 -24.617  0.00  0.00    -0.358 OA
ATOM      6  N   UNL     1      34.024 -13.503 -23.688  0.00  0.00    -0.076 NA
ATOM      7  C   UNL     1      34.335 -15.455 -22.642  0.00  0.00    +0.109 C 
ATOM      8  C   UNL     1      34.422 -15.691 -23.963  0.00  0.00    +0.159 C 
ATOM      9  C   UNL     1      34.091 -14.106 -22.497  0.00  0.00    +0.148 C 
ATOM     10  C   UNL     1      34.660 -16.871 -24.805  0.00  0.00    +0.076 C 
ENDBRANCH   3   7
BRANCH   2  11
ATOM     11  C   UNL     1      34.061 -18.926 -21.177  0.00  0.00    +0.051 C 
ATOM     12  C   UNL     1      34.130 -21.261 -19.652  0.00  0.00    +0.072 C 
ATOM     13  C   UNL     1      32.877 -19.464 -20.672  0.00  0.00    +0.015 C 
ATOM     14  C   UNL     1      35.279 -19.555 -20.920  0.00  0.00    +0.015 C 
ATOM     15  C   UNL     1      32.912 -20.632 -19.909  0.00  0.00    +0.005 C 
ATOM     16  C   UNL     1      35.314 -20.722 -20.158  0.00  0.00    +0.005 C 
BRANCH  12  20
ATOM     17  F   UNL     1      33.117 -22.597 -17.984  0.00  0.00    -0.166 F 
ATOM     18  F   UNL     1      34.136 -23.630 -19.602  0.00  0.00    -0.166 F 
ATOM     19  F   UNL     1      35.295 -22.573 -18.088  0.00  0.00    -0.166 F 
ATOM     20  C   UNL     1      34.167 -22.510 -18.838  0.00  0.00    +0.419 C 
ENDBRANCH  12  20
ENDBRANCH   2  11
TORSDOF 3
ENDMDL
MODEL 2
REMARK VINA RESULT:      -9.4      1.274      1.964
REMARK  Name = 3899
REMARK  3 active torsions:
REMARK  status: ('A' for Active; 'I' for Inactive)
REMARK    1  A    between atoms: N_2  and  C_11
REMARK    2  A    between atoms: C_3  and  C_7
REMARK    3  A    between atoms: C_12  and  C_20
REMARK                            x       y       z     vdW  Elec       q    Type
REMARK                         _______ _______ _______ _____ _____    ______ ____
ROOT
ATOM      1  O   UNL     1      35.239 -17.209 -21.123  0.00  0.00    -0.270 OA
ATOM      2  N   UNL     1      34.156 -19.012 -22.142  0.00  0.00    -0.280 N 
ATOM      3  C   UNL     1      34.718 -17.723 -22.109  0.00  0.00    +0.254 C 
ATOM      4  H   UNL     1      33.773 -19.290 -23.006  0.00  0.00    +0.155 HD
ENDROOT
BRANCH   3   7
ATOM      5  O   UNL     1      34.542 -15.371 -24.848  0.00  0.00    -0.358 OA
ATOM      6  N   UNL     1      34.734 -16.537 -25.578  0.00  0.00    -0.076 NA
ATOM      7  C   UNL     1      34.686 -16.998 -23.390  0.00  0.00    +0.109 C 
ATOM      8  C   UNL     1      34.516 -15.670 -23.524  0.00  0.00    +0.159 C 
ATOM      9  C   UNL     1      34.817 -17.508 -24.664  0.00  0.00    +0.148 C 
ATOM     10  C   UNL     1      34.320 -14.540 -22.606  0.00  0.00    +0.076 C 
ENDBRANCH   3   7
BRANCH   2  11
ATOM     11  C   UNL     1      34.071 -19.946 -21.109  0.00  0.00    +0.051 C 
ATOM     12  C   UNL     1      33.899 -21.811 -19.042  0.00  0.00    +0.072 C 
ATOM     13  C   UNL     1      32.841 -20.204 -20.503  0.00  0.00    +0.015 C 
ATOM     14  C   UNL     1      35.214 -20.620 -20.682  0.00  0.00    +0.015 C 
ATOM     15  C   UNL     1      32.756 -21.137 -19.469  0.00  0.00    +0.005 C 
ATOM     16  C   UNL     1      35.129 -21.553 -19.649  0.00  0.00    +0.005 C 
BRANCH  12  20
ATOM     17  F   UNL     1      33.701 -24.080 -18.403  0.00  0.00    -0.166 F 
ATOM     18  F   UNL     1      34.892 -22.787 -17.124  0.00  0.00    -0.166 F 
ATOM     19  F   UNL     1      32.722 -22.580 -17.158  0.00  0.00    -0.166 F 
ATOM     20  C   UNL     1      33.808 -22.810 -17.939  0.00  0.00    +0.419 C 
ENDBRANCH  12  20
ENDBRANCH   2  11
TORSDOF 3
ENDMDL
MODEL 3
REMARK VINA RESULT:      -9.3      0.828      1.560
REMARK  Name = 3899
REMARK  3 active torsions:
REMARK  status: ('A' for Active; 'I' for Inactive)
REMARK    1  A    between atoms: N_2  and  C_11
REMARK    2  A    between atoms: C_3  and  C_7
REMARK    3  A    between atoms: C_12  and  C_20
REMARK                            x       y       z     vdW  Elec       q    Type
REMARK                         _______ _______ _______ _____ _____    ______ ____
ROOT
ATOM      1  O   UNL     1      34.953 -15.979 -20.452  0.00  0.00    -0.270 OA
ATOM      2  N   UNL     1      33.814 -17.485 -21.828  0.00  0.00    -0.280 N 
ATOM      3  C   UNL     1      34.298 -16.216 -21.462  0.00  0.00    +0.254 C 
ATOM      4  H   UNL     1      33.302 -17.523 -22.669  0.00  0.00    +0.155 HD
ENDROOT
BRANCH   3   7
ATOM      5  O   UNL     1      33.181 -13.300 -23.282  0.00  0.00    -0.358 OA
ATOM      6  N   UNL     1      33.955 -13.889 -24.274  0.00  0.00    -0.076 NA
ATOM      7  C   UNL     1      34.000 -15.138 -22.420  0.00  0.00    +0.109 C 
ATOM      8  C   UNL     1      33.221 -14.071 -22.165  0.00  0.00    +0.159 C 
ATOM      9  C   UNL     1      34.439 -15.004 -23.719  0.00  0.00    +0.148 C 
ATOM     10  C   UNL     1      32.449 -13.587 -21.013  0.00  0.00    +0.076 C 
ENDBRANCH   3   7
BRANCH   2  11
ATOM     11  C   UNL     1      33.965 -18.697 -21.153  0.00  0.00    +0.051 C 
ATOM     12  C   UNL     1      34.265 -21.118 -19.801  0.00  0.00    +0.072 C 
ATOM     13  C   UNL     1      32.845 -19.352 -20.640  0.00  0.00    +0.015 C 
ATOM     14  C   UNL     1      35.233 -19.251 -20.990  0.00  0.00    +0.015 C 
ATOM     15  C   UNL     1      32.996 -20.564 -19.964  0.00  0.00    +0.005 C 
ATOM     16  C   UNL     1      35.384 -20.462 -20.316  0.00  0.00    +0.005 C 
BRANCH  12  20
ATOM     17  F   UNL     1      33.414 -22.644 -18.206  0.00  0.00    -0.166 F 
ATOM     18  F   UNL     1      34.458 -23.477 -19.921  0.00  0.00    -0.166 F 
ATOM     19  F   UNL     1      35.579 -22.439 -18.368  0.00  0.00    -0.166 F 
ATOM     20  C   UNL     1      34.426 -22.414 -19.081  0.00  0.00    +0.419 C 
ENDBRANCH  12  20
ENDBRANCH   2  11
TORSDOF 3
ENDMDL
MODEL 4
REMARK VINA RESULT:      -9.2      9.136     10.961
REMARK  Name = 3899
REMARK  3 active torsions:
REMARK  status: ('A' for Active; 'I' for Inactive)
REMARK    1  A    between atoms: N_2  and  C_11
REMARK    2  A    between atoms: C_3  and  C_7
REMARK    3  A    between atoms: C_12  and  C_20
REMARK                            x       y       z     vdW  Elec       q    Type
REMARK                         _______ _______ _______ _____ _____    ______ ____
ROOT
ATOM      1  O   UNL     1      35.272 -24.379 -15.176  0.00  0.00    -0.270 OA
ATOM      2  N   UNL     1      33.675 -24.503 -13.474  0.00  0.00    -0.280 N 
ATOM      3  C   UNL     1      34.981 -24.542 -13.994  0.00  0.00    +0.254 C 
ATOM      4  H   UNL     1      33.595 -24.652 -12.503  0.00  0.00    +0.155 HD
ENDROOT
BRANCH   3   7
ATOM      5  O   UNL     1      37.768 -25.622 -11.961  0.00  0.00    -0.358 OA
ATOM      6  N   UNL     1      37.348 -24.541 -11.194  0.00  0.00    -0.076 NA
ATOM      7  C   UNL     1      36.041 -24.761 -12.996  0.00  0.00    +0.109 C 
ATOM      8  C   UNL     1      36.964 -25.739 -13.049  0.00  0.00    +0.159 C 
ATOM      9  C   UNL     1      36.297 -24.039 -11.850  0.00  0.00    +0.148 C 
ATOM     10  C   UNL     1      37.273 -26.840 -13.970  0.00  0.00    +0.076 C 
ENDBRANCH   3   7
BRANCH   2  11
ATOM     11  C   UNL     1      32.478 -24.279 -14.155  0.00  0.00    +0.051 C 
ATOM     12  C   UNL     1      30.085 -23.836 -15.518  0.00  0.00    +0.072 C 
ATOM     13  C   UNL     1      31.403 -25.150 -13.977  0.00  0.00    +0.015 C 
ATOM     14  C   UNL     1      32.357 -23.188 -15.014  0.00  0.00    +0.015 C 
ATOM     15  C   UNL     1      30.206 -24.927 -14.660  0.00  0.00    +0.005 C 
ATOM     16  C   UNL     1      31.161 -22.964 -15.695  0.00  0.00    +0.005 C 
BRANCH  12  20
ATOM     17  F   UNL     1      27.777 -23.334 -15.401  0.00  0.00    -0.166 F 
ATOM     18  F   UNL     1      28.881 -22.548 -17.101  0.00  0.00    -0.166 F 
ATOM     19  F   UNL     1      28.449 -24.681 -16.979  0.00  0.00    -0.166 F 
ATOM     20  C   UNL     1      28.805 -23.597 -16.246  0.00  0.00    +0.419 C 
ENDBRANCH  12  20
ENDBRANCH   2  11
TORSDOF 3
ENDMDL
MODEL 5
REMARK VINA RESULT:      -9.2      1.831      2.492
REMARK  Name = 3899
REMARK  3 active torsions:
REMARK  status: ('A' for Active; 'I' for Inactive)
REMARK    1  A    between atoms: N_2  and  C_11
REMARK    2  A    between atoms: C_3  and  C_7
REMARK    3  A    between atoms: C_12  and  C_20
REMARK                            x       y       z     vdW  Elec       q    Type
REMARK                         _______ _______ _______ _____ _____    ______ ____
ROOT
ATOM      1  O   UNL     1      34.956 -17.742 -24.881  0.00  0.00    -0.270 OA
ATOM      2  N   UNL     1      34.384 -17.074 -22.716  0.00  0.00    -0.280 N 
ATOM      3  C   UNL     1      34.467 -16.920 -24.111  0.00  0.00    +0.254 C 
ATOM      4  H   UNL     1      33.964 -16.329 -22.226  0.00  0.00    +0.155 HD
ENDROOT
BRANCH   3   7
ATOM      5  O   UNL     1      33.180 -13.607 -24.766  0.00  0.00    -0.358 OA
ATOM      6  N   UNL     1      32.869 -14.203 -25.983  0.00  0.00    -0.076 NA
ATOM      7  C   UNL     1      33.872 -15.680 -24.636  0.00  0.00    +0.109 C 
ATOM      8  C   UNL     1      33.787 -14.518 -23.963  0.00  0.00    +0.159 C 
ATOM      9  C   UNL     1      33.302 -15.462 -25.872  0.00  0.00    +0.148 C 
ATOM     10  C   UNL     1      34.185 -14.046 -22.630  0.00  0.00    +0.076 C 
ENDBRANCH   3   7
BRANCH   2  11
ATOM     11  C   UNL     1      34.820 -18.145 -21.935  0.00  0.00    +0.051 C 
ATOM     12  C   UNL     1      35.690 -20.287 -20.374  0.00  0.00    +0.072 C 
ATOM     13  C   UNL     1      33.898 -19.070 -21.444  0.00  0.00    +0.015 C 
ATOM     14  C   UNL     1      36.176 -18.291 -21.646  0.00  0.00    +0.015 C 
ATOM     15  C   UNL     1      34.334 -20.141 -20.663  0.00  0.00    +0.005 C 
ATOM     16  C   UNL     1      36.612 -19.362 -20.867  0.00  0.00    +0.005 C 
BRANCH  12  20
ATOM     17  F   UNL     1      36.394 -21.070 -18.256  0.00  0.00    -0.166 F 
ATOM     18  F   UNL     1      35.253 -22.444 -19.495  0.00  0.00    -0.166 F 
ATOM     19  F   UNL     1      37.310 -21.955 -20.026  0.00  0.00    -0.166 F 
ATOM     20  C   UNL     1      36.156 -21.433 -19.541  0.00  0.00    +0.419 C 
ENDBRANCH  12  20
ENDBRANCH   2  11
TORSDOF 3
ENDMDL
MODEL 6
REMARK VINA RESULT:      -9.1      6.646     10.127
REMARK  Name = 3899
REMARK  3 active torsions:
REMARK  status: ('A' for Active; 'I' for Inactive)
REMARK    1  A    between atoms: N_2  and  C_11
REMARK    2  A    between atoms: C_3  and  C_7
REMARK    3  A    between atoms: C_12  and  C_20
REMARK                            x       y       z     vdW  Elec       q    Type
REMARK                         _______ _______ _______ _____ _____    ______ ____
ROOT
ATOM      1  O   UNL     1      35.931 -25.523 -15.464  0.00  0.00    -0.270 OA
ATOM      2  N   UNL     1      35.755 -23.232 -15.035  0.00  0.00    -0.280 N 
ATOM      3  C   UNL     1      35.847 -24.588 -14.672  0.00  0.00    +0.254 C 
ATOM      4  H   UNL     1      35.693 -22.592 -14.288  0.00  0.00    +0.155 HD
ENDROOT
BRANCH   3   7
ATOM      5  O   UNL     1      36.577 -25.461 -11.242  0.00  0.00    -0.358 OA
ATOM      6  N   UNL     1      35.293 -24.960 -11.067  0.00  0.00    -0.076 NA
ATOM      7  C   UNL     1      35.878 -24.843 -13.222  0.00  0.00    +0.109 C 
ATOM      8  C   UNL     1      36.915 -25.382 -12.554  0.00  0.00    +0.159 C 
ATOM      9  C   UNL     1      34.895 -24.592 -12.289  0.00  0.00    +0.148 C 
ATOM     10  C   UNL     1      38.252 -25.874 -12.912  0.00  0.00    +0.076 C 
ENDBRANCH   3   7
BRANCH   2  11
ATOM     11  C   UNL     1      35.741 -22.677 -16.315  0.00  0.00    +0.051 C 
ATOM     12  C   UNL     1      35.713 -21.566 -18.873  0.00  0.00    +0.072 C 
ATOM     13  C   UNL     1      36.856 -21.983 -16.786  0.00  0.00    +0.015 C 
ATOM     14  C   UNL     1      34.613 -22.815 -17.122  0.00  0.00    +0.015 C 
ATOM     15  C   UNL     1      36.841 -21.428 -18.066  0.00  0.00    +0.005 C 
ATOM     16  C   UNL     1      34.598 -22.261 -18.402  0.00  0.00    +0.005 C 
BRANCH  12  20
ATOM     17  F   UNL     1      36.280 -21.786 -21.159  0.00  0.00    -0.166 F 
ATOM     18  F   UNL     1      34.442 -20.725 -20.688  0.00  0.00    -0.166 F 
ATOM     19  F   UNL     1      36.369 -19.795 -20.273  0.00  0.00    -0.166 F 
ATOM     20  C   UNL     1      35.698 -20.974 -20.242  0.00  0.00    +0.419 C 
ENDBRANCH  12  20
ENDBRANCH   2  11
TORSDOF 3
ENDMDL
MODEL 7
REMARK VINA RESULT:      -9.1      5.074      7.554
REMARK  Name = 3899
REMARK  3 active torsions:
REMARK  status: ('A' for Active; 'I' for Inactive)
REMARK    1  A    between atoms: N_2  and  C_11
REMARK    2  A    between atoms: C_3  and  C_7
REMARK    3  A    between atoms: C_12  and  C_20
REMARK                            x       y       z     vdW  Elec       q    Type
REMARK                         _______ _______ _______ _____ _____    ______ ____
ROOT
ATOM      1  O   UNL     1      34.257 -19.634 -22.397  0.00  0.00    -0.270 OA
ATOM      2  N   UNL     1      34.818 -17.937 -20.892  0.00  0.00    -0.280 N 
ATOM      3  C   UNL     1      34.727 -19.273 -21.322  0.00  0.00    +0.254 C 
ATOM      4  H   UNL     1      35.219 -17.799 -20.003  0.00  0.00    +0.155 HD
ENDROOT
BRANCH   3   7
ATOM      5  O   UNL     1      35.427 -21.884 -18.923  0.00  0.00    -0.358 OA
ATOM      6  N   UNL     1      36.730 -21.484 -19.192  0.00  0.00    -0.076 NA
ATOM      7  C   UNL     1      35.288 -20.265 -20.390  0.00  0.00    +0.109 C 
ATOM      8  C   UNL     1      34.567 -21.134 -19.658  0.00  0.00    +0.159 C 
ATOM      9  C   UNL     1      36.612 -20.499 -20.087  0.00  0.00    +0.148 C 
ATOM     10  C   UNL     1      33.138 -21.430 -19.490  0.00  0.00    +0.076 C 
ENDBRANCH   3   7
BRANCH   2  11
ATOM     11  C   UNL     1      34.411 -16.782 -21.562  0.00  0.00    +0.051 C 
ATOM     12  C   UNL     1      33.603 -14.474 -22.902  0.00  0.00    +0.072 C 
ATOM     13  C   UNL     1      35.040 -16.410 -22.751  0.00  0.00    +0.015 C 
ATOM     14  C   UNL     1      33.380 -16.001 -21.043  0.00  0.00    +0.015 C 
ATOM     15  C   UNL     1      34.634 -15.255 -23.421  0.00  0.00    +0.005 C 
ATOM     16  C   UNL     1      32.974 -14.847 -21.713  0.00  0.00    +0.005 C 
BRANCH  12  20
ATOM     17  F   UNL     1      34.054 -12.223 -23.473  0.00  0.00    -0.166 F 
ATOM     18  F   UNL     1      33.024 -13.437 -24.953  0.00  0.00    -0.166 F 
ATOM     19  F   UNL     1      31.974 -12.797 -23.154  0.00  0.00    -0.166 F 
ATOM     20  C   UNL     1      33.169 -13.240 -23.619  0.00  0.00    +0.419 C 
ENDBRANCH  12  20
ENDBRANCH   2  11
TORSDOF 3
ENDMDL
MODEL 8
REMARK VINA RESULT:      -9.0      3.265      4.953
REMARK  Name = 3899
REMARK  3 active torsions:
REMARK  status: ('A' for Active; 'I' for Inactive)
REMARK    1  A    between atoms: N_2  and  C_11
REMARK    2  A    between atoms: C_3  and  C_7
REMARK    3  A    between atoms: C_12  and  C_20
REMARK                            x       y       z     vdW  Elec       q    Type
REMARK                         _______ _______ _______ _____ _____    ______ ____
ROOT
ATOM      1  O   UNL     1      33.255 -13.325 -25.086  0.00  0.00    -0.270 OA
ATOM      2  N   UNL     1      34.201 -13.508 -22.956  0.00  0.00    -0.280 N 
ATOM      3  C   UNL     1      33.669 -12.806 -24.053  0.00  0.00    +0.254 C 
ATOM      4  H   UNL     1      34.494 -12.956 -22.195  0.00  0.00    +0.155 HD
ENDROOT
BRANCH   3   7
ATOM      5  O   UNL     1      33.977  -9.205 -24.121  0.00  0.00    -0.358 OA
ATOM      6  N   UNL     1      32.995  -9.318 -23.144  0.00  0.00    -0.076 NA
ATOM      7  C   UNL     1      33.590 -11.346 -23.876  0.00  0.00    +0.109 C 
ATOM      8  C   UNL     1      34.325 -10.444 -24.553  0.00  0.00    +0.159 C 
ATOM      9  C   UNL     1      32.781 -10.632 -23.018  0.00  0.00    +0.148 C 
ATOM     10  C   UNL     1      35.359 -10.503 -25.594  0.00  0.00    +0.076 C 
ENDBRANCH   3   7
BRANCH   2  11
ATOM     11  C   UNL     1      34.369 -14.885 -22.810  0.00  0.00    +0.051 C 
ATOM     12  C   UNL     1      34.706 -17.638 -22.514  0.00  0.00    +0.072 C 
ATOM     13  C   UNL     1      34.121 -15.489 -21.577  0.00  0.00    +0.015 C 
ATOM     14  C   UNL     1      34.785 -15.657 -23.894  0.00  0.00    +0.015 C 
ATOM     15  C   UNL     1      34.290 -16.867 -21.430  0.00  0.00    +0.005 C 
ATOM     16  C   UNL     1      34.953 -17.033 -23.747  0.00  0.00    +0.005 C 
BRANCH  12  20
ATOM     17  F   UNL     1      35.065 -19.736 -23.547  0.00  0.00    -0.166 F 
ATOM     18  F   UNL     1      35.956 -19.426 -21.588  0.00  0.00    -0.166 F 
ATOM     19  F   UNL     1      33.798 -19.676 -21.772  0.00  0.00    -0.166 F 
ATOM     20  C   UNL     1      34.884 -19.111 -22.356  0.00  0.00    +0.419 C 
ENDBRANCH  12  20
ENDBRANCH   2  11
TORSDOF 3
ENDMDL
MODEL 9
REMARK VINA RESULT:      -9.0      3.094      4.817
REMARK  Name = 3899
REMARK  3 active torsions:
REMARK  status: ('A' for Active; 'I' for Inactive)
REMARK    1  A    between atoms: N_2  and  C_11
REMARK    2  A    between atoms: C_3  and  C_7
REMARK    3  A    between atoms: C_12  and  C_20
REMARK                            x       y       z     vdW  Elec       q    Type
REMARK                         _______ _______ _______ _____ _____    ______ ____
ROOT
ATOM      1  O   UNL     1      32.243 -13.656 -23.778  0.00  0.00    -0.270 OA
ATOM      2  N   UNL     1      34.323 -13.584 -22.714  0.00  0.00    -0.280 N 
ATOM      3  C   UNL     1      33.208 -13.021 -23.360  0.00  0.00    +0.254 C 
ATOM      4  H   UNL     1      35.022 -12.949 -22.433  0.00  0.00    +0.155 HD
ENDROOT
BRANCH   3   7
ATOM      5  O   UNL     1      32.722  -9.442 -23.212  0.00  0.00    -0.358 OA
ATOM      6  N   UNL     1      33.807  -9.477 -24.080  0.00  0.00    -0.076 NA
ATOM      7  C   UNL     1      33.235 -11.554 -23.481  0.00  0.00    +0.109 C 
ATOM      8  C   UNL     1      32.390 -10.711 -22.860  0.00  0.00    +0.159 C 
ATOM      9  C   UNL     1      34.095 -10.774 -24.223  0.00  0.00    +0.148 C 
ATOM     10  C   UNL     1      31.254 -10.853 -21.939  0.00  0.00    +0.076 C 
ENDBRANCH   3   7
BRANCH   2  11
ATOM     11  C   UNL     1      34.567 -14.926 -22.421  0.00  0.00    +0.051 C 
ATOM     12  C   UNL     1      35.057 -17.608 -21.832  0.00  0.00    +0.072 C 
ATOM     13  C   UNL     1      34.507 -15.372 -21.100  0.00  0.00    +0.015 C 
ATOM     14  C   UNL     1      34.872 -15.820 -23.446  0.00  0.00    +0.015 C 
ATOM     15  C   UNL     1      34.753 -16.714 -20.807  0.00  0.00    +0.005 C 
ATOM     16  C   UNL     1      35.116 -17.162 -23.153  0.00  0.00    +0.005 C 
BRANCH  12  20
ATOM     17  F   UNL     1      36.602 -19.262 -21.144  0.00  0.00    -0.166 F 
ATOM     18  F   UNL     1      34.538 -19.504 -20.508  0.00  0.00    -0.166 F 
ATOM     19  F   UNL     1      35.077 -19.832 -22.595  0.00  0.00    -0.166 F 
ATOM     20  C   UNL     1      35.317 -19.043 -21.518  0.00  0.00    +0.419 C 
ENDBRANCH  12  20
ENDBRANCH   2  11
TORSDOF 3
ENDMDL
