MODEL 1
REMARK VINA RESULT:      -7.5      0.000      0.000
REMARK  Name = 7029
REMARK  5 active torsions:
REMARK  status: ('A' for Active; 'I' for Inactive)
REMARK    1  A    between atoms: C_1  and  C_4
REMARK    2  A    between atoms: C_1  and  N_11
REMARK    3  A    between atoms: C_4  and  C_5
REMARK    4  A    between atoms: N_11  and  C_13
REMARK    5  A    between atoms: N_11  and  C_15
REMARK                            x       y       z     vdW  Elec       q    Type
REMARK                         _______ _______ _______ _____ _____    ______ ____
ROOT
ATOM      1  C   UNL     1      34.679 -17.624 -21.891  0.00  0.00    +0.006 C 
ATOM      2  C   UNL     1      34.774 -16.380 -21.014  0.00  0.00    -0.015 C 
ENDROOT
BRANCH   1   4
ATOM      3  O   UNL     1      36.830 -18.657 -21.541  0.00  0.00    -0.294 OA
ATOM      4  C   UNL     1      35.614 -18.710 -21.368  0.00  0.00    +0.154 C 
BRANCH   4   5
ATOM      5  C   UNL     1      35.044 -19.883 -20.641  0.00  0.00    +0.033 C 
ATOM      6  C   UNL     1      33.677 -20.014 -20.571  0.00  0.00    +0.003 C 
ATOM      7  C   UNL     1      35.911 -20.787 -20.069  0.00  0.00    +0.003 C 
ATOM      8  C   UNL     1      33.145 -21.109 -19.890  0.00  0.00    +0.000 C 
ATOM      9  C   UNL     1      35.378 -21.882 -19.389  0.00  0.00    +0.000 C 
ATOM     10  C   UNL     1      33.996 -22.043 -19.300  0.00  0.00    +0.000 C 
ENDBRANCH   4   5
ENDBRANCH   1   4
BRANCH   1  11
ATOM     11  N   UNL     1      35.105 -17.297 -23.251  0.00  0.00    +0.393 N 
ATOM     12  H   UNL     1      36.083 -17.566 -23.356  0.00  0.00    -0.079 HD
BRANCH  11  13
ATOM     13  C   UNL     1      34.991 -15.859 -23.493  0.00  0.00    -0.077 C 
ATOM     14  C   UNL     1      33.916 -15.559 -24.486  0.00  0.00    -0.025 C 
ENDBRANCH  11  13
BRANCH  11  15
ATOM     15  C   UNL     1      34.313 -18.045 -24.228  0.00  0.00    -0.077 C 
ATOM     16  C   UNL     1      34.917 -19.382 -24.508  0.00  0.00    -0.025 C 
ENDBRANCH  11  15
ENDBRANCH   1  11
TORSDOF 5
ENDMDL
MODEL 2
REMARK VINA RESULT:      -7.4      1.134      1.251
REMARK  Name = 7029
REMARK  5 active torsions:
REMARK  status: ('A' for Active; 'I' for Inactive)
REMARK    1  A    between atoms: C_1  and  C_4
REMARK    2  A    between atoms: C_1  and  N_11
REMARK    3  A    between atoms: C_4  and  C_5
REMARK    4  A    between atoms: N_11  and  C_13
REMARK    5  A    between atoms: N_11  and  C_15
REMARK                            x       y       z     vdW  Elec       q    Type
REMARK                         _______ _______ _______ _____ _____    ______ ____
ROOT
ATOM      1  C   UNL     1      34.371 -16.763 -21.866  0.00  0.00    +0.006 C 
ATOM      2  C   UNL     1      34.567 -15.913 -20.617  0.00  0.00    -0.015 C 
ENDROOT
BRANCH   1   4
ATOM      3  O   UNL     1      36.350 -18.045 -22.373  0.00  0.00    -0.294 OA
ATOM      4  C   UNL     1      35.260 -18.001 -21.806  0.00  0.00    +0.154 C 
BRANCH   4   5
ATOM      5  C   UNL     1      34.794 -19.205 -21.055  0.00  0.00    +0.033 C 
ATOM      6  C   UNL     1      33.442 -19.411 -20.914  0.00  0.00    +0.003 C 
ATOM      7  C   UNL     1      35.738 -20.060 -20.532  0.00  0.00    +0.003 C 
ATOM      8  C   UNL     1      33.008 -20.535 -20.211  0.00  0.00    +0.000 C 
ATOM      9  C   UNL     1      35.303 -21.184 -19.830  0.00  0.00    +0.000 C 
ATOM     10  C   UNL     1      33.938 -21.421 -19.669  0.00  0.00    +0.000 C 
ENDBRANCH   4   5
ENDBRANCH   1   4
BRANCH   1  11
ATOM     11  N   UNL     1      34.768 -15.997 -23.047  0.00  0.00    +0.393 N 
ATOM     12  H   UNL     1      35.747 -16.200 -23.249  0.00  0.00    -0.079 HD
BRANCH  11  13
ATOM     13  C   UNL     1      34.634 -14.563 -22.796  0.00  0.00    -0.077 C 
ATOM     14  C   UNL     1      33.619 -13.945 -23.701  0.00  0.00    -0.025 C 
ENDBRANCH  11  13
BRANCH  11  15
ATOM     15  C   UNL     1      33.966 -16.392 -24.205  0.00  0.00    -0.077 C 
ATOM     16  C   UNL     1      34.811 -17.025 -25.262  0.00  0.00    -0.025 C 
ENDBRANCH  11  15
ENDBRANCH   1  11
TORSDOF 5
ENDMDL
MODEL 3
REMARK VINA RESULT:      -7.3      1.790      5.192
REMARK  Name = 7029
REMARK  5 active torsions:
REMARK  status: ('A' for Active; 'I' for Inactive)
REMARK    1  A    between atoms: C_1  and  C_4
REMARK    2  A    between atoms: C_1  and  N_11
REMARK    3  A    between atoms: C_4  and  C_5
REMARK    4  A    between atoms: N_11  and  C_13
REMARK    5  A    between atoms: N_11  and  C_15
REMARK                            x       y       z     vdW  Elec       q    Type
REMARK                         _______ _______ _______ _____ _____    ______ ____
ROOT
ATOM      1  C   UNL     1      35.534 -17.766 -22.337  0.00  0.00    +0.006 C 
ATOM      2  C   UNL     1      36.653 -18.538 -21.648  0.00  0.00    -0.015 C 
ENDROOT
BRANCH   1   4
ATOM      3  O   UNL     1      35.242 -16.660 -20.213  0.00  0.00    -0.294 OA
ATOM      4  C   UNL     1      35.014 -16.662 -21.422  0.00  0.00    +0.154 C 
BRANCH   4   5
ATOM      5  C   UNL     1      34.189 -15.559 -21.997  0.00  0.00    +0.033 C 
ATOM      6  C   UNL     1      34.553 -15.030 -23.213  0.00  0.00    +0.003 C 
ATOM      7  C   UNL     1      33.097 -15.114 -21.286  0.00  0.00    +0.003 C 
ATOM      8  C   UNL     1      33.782 -13.998 -23.749  0.00  0.00    +0.000 C 
ATOM      9  C   UNL     1      32.327 -14.082 -21.823  0.00  0.00    +0.000 C 
ATOM     10  C   UNL     1      32.670 -13.525 -23.054  0.00  0.00    +0.000 C 
ENDBRANCH   4   5
ENDBRANCH   1   4
BRANCH   1  11
ATOM     11  N   UNL     1      34.417 -18.668 -22.614  0.00  0.00    +0.393 N 
ATOM     12  H   UNL     1      33.550 -18.132 -22.564  0.00  0.00    -0.079 HD
BRANCH  11  13
ATOM     13  C   UNL     1      34.359 -19.734 -21.615  0.00  0.00    -0.077 C 
ATOM     14  C   UNL     1      33.064 -19.710 -20.869  0.00  0.00    -0.025 C 
ENDBRANCH  11  13
BRANCH  11  15
ATOM     15  C   UNL     1      34.536 -19.231 -23.959  0.00  0.00    -0.077 C 
ATOM     16  C   UNL     1      34.460 -18.166 -25.003  0.00  0.00    -0.025 C 
ENDBRANCH  11  15
ENDBRANCH   1  11
TORSDOF 5
ENDMDL
MODEL 4
REMARK VINA RESULT:      -7.2      3.874      7.399
REMARK  Name = 7029
REMARK  5 active torsions:
REMARK  status: ('A' for Active; 'I' for Inactive)
REMARK    1  A    between atoms: C_1  and  C_4
REMARK    2  A    between atoms: C_1  and  N_11
REMARK    3  A    between atoms: C_4  and  C_5
REMARK    4  A    between atoms: N_11  and  C_13
REMARK    5  A    between atoms: N_11  and  C_15
REMARK                            x       y       z     vdW  Elec       q    Type
REMARK                         _______ _______ _______ _____ _____    ______ ____
ROOT
ATOM      1  C   UNL     1      33.821 -22.750 -16.986  0.00  0.00    +0.006 C 
ATOM      2  C   UNL     1      32.557 -23.408 -16.444  0.00  0.00    -0.015 C 
ENDROOT
BRANCH   1   4
ATOM      3  O   UNL     1      33.842 -24.038 -19.026  0.00  0.00    -0.294 OA
ATOM      4  C   UNL     1      33.900 -22.928 -18.499  0.00  0.00    +0.154 C 
BRANCH   4   5
ATOM      5  C   UNL     1      34.071 -21.729 -19.372  0.00  0.00    +0.033 C 
ATOM      6  C   UNL     1      35.340 -21.381 -19.772  0.00  0.00    +0.003 C 
ATOM      7  C   UNL     1      32.951 -21.018 -19.741  0.00  0.00    +0.003 C 
ATOM      8  C   UNL     1      35.498 -20.259 -20.587  0.00  0.00    +0.000 C 
ATOM      9  C   UNL     1      33.110 -19.898 -20.556  0.00  0.00    +0.000 C 
ATOM     10  C   UNL     1      34.384 -19.519 -20.979  0.00  0.00    +0.000 C 
ENDBRANCH   4   5
ENDBRANCH   1   4
BRANCH   1  11
ATOM     11  N   UNL     1      34.997 -23.399 -16.408  0.00  0.00    +0.393 N 
ATOM     12  H   UNL     1      35.492 -23.892 -17.151  0.00  0.00    -0.079 HD
BRANCH  11  13
ATOM     13  C   UNL     1      34.598 -24.373 -15.392  0.00  0.00    -0.077 C 
ATOM     14  C   UNL     1      35.765 -25.178 -14.923  0.00  0.00    -0.025 C 
ENDBRANCH  11  13
BRANCH  11  15
ATOM     15  C   UNL     1      35.900 -22.401 -15.833  0.00  0.00    -0.077 C 
ATOM     16  C   UNL     1      37.093 -22.182 -16.706  0.00  0.00    -0.025 C 
ENDBRANCH  11  15
ENDBRANCH   1  11
TORSDOF 5
ENDMDL
MODEL 5
REMARK VINA RESULT:      -7.1      1.902      5.542
REMARK  Name = 7029
REMARK  5 active torsions:
REMARK  status: ('A' for Active; 'I' for Inactive)
REMARK    1  A    between atoms: C_1  and  C_4
REMARK    2  A    between atoms: C_1  and  N_11
REMARK    3  A    between atoms: C_4  and  C_5
REMARK    4  A    between atoms: N_11  and  C_13
REMARK    5  A    between atoms: N_11  and  C_15
REMARK                            x       y       z     vdW  Elec       q    Type
REMARK                         _______ _______ _______ _____ _____    ______ ____
ROOT
ATOM      1  C   UNL     1      34.694 -18.138 -21.729  0.00  0.00    +0.006 C 
ATOM      2  C   UNL     1      35.743 -18.288 -22.824  0.00  0.00    -0.015 C 
ENDROOT
BRANCH   1   4
ATOM      3  O   UNL     1      35.325 -16.485 -20.089  0.00  0.00    -0.294 OA
ATOM      4  C   UNL     1      34.740 -16.730 -21.144  0.00  0.00    +0.154 C 
BRANCH   4   5
ATOM      5  C   UNL     1      34.046 -15.615 -21.853  0.00  0.00    +0.033 C 
ATOM      6  C   UNL     1      32.937 -15.051 -21.268  0.00  0.00    +0.003 C 
ATOM      7  C   UNL     1      34.544 -15.196 -23.066  0.00  0.00    +0.003 C 
ATOM      8  C   UNL     1      32.288 -14.010 -21.932  0.00  0.00    +0.000 C 
ATOM      9  C   UNL     1      33.895 -14.154 -23.730  0.00  0.00    +0.000 C 
ATOM     10  C   UNL     1      32.767 -13.562 -23.162  0.00  0.00    +0.000 C 
ENDBRANCH   4   5
ENDBRANCH   1   4
BRANCH   1  11
ATOM     11  N   UNL     1      34.982 -19.073 -20.643  0.00  0.00    +0.393 N 
ATOM     12  H   UNL     1      34.870 -18.582 -19.756  0.00  0.00    -0.079 HD
BRANCH  11  13
ATOM     13  C   UNL     1      36.360 -19.555 -20.734  0.00  0.00    -0.077 C 
ATOM     14  C   UNL     1      36.538 -20.836 -19.986  0.00  0.00    -0.025 C 
ENDBRANCH  11  13
BRANCH  11  15
ATOM     15  C   UNL     1      34.044 -20.195 -20.672  0.00  0.00    -0.077 C 
ATOM     16  C   UNL     1      32.628 -19.721 -20.631  0.00  0.00    -0.025 C 
ENDBRANCH  11  15
ENDBRANCH   1  11
TORSDOF 5
ENDMDL
MODEL 6
REMARK VINA RESULT:      -7.0      1.335      2.249
REMARK  Name = 7029
REMARK  5 active torsions:
REMARK  status: ('A' for Active; 'I' for Inactive)
REMARK    1  A    between atoms: C_1  and  C_4
REMARK    2  A    between atoms: C_1  and  N_11
REMARK    3  A    between atoms: C_4  and  C_5
REMARK    4  A    between atoms: N_11  and  C_13
REMARK    5  A    between atoms: N_11  and  C_15
REMARK                            x       y       z     vdW  Elec       q    Type
REMARK                         _______ _______ _______ _____ _____    ______ ____
ROOT
ATOM      1  C   UNL     1      35.023 -18.154 -22.845  0.00  0.00    +0.006 C 
ATOM      2  C   UNL     1      34.958 -19.365 -23.767  0.00  0.00    -0.015 C 
ENDROOT
BRANCH   1   4
ATOM      3  O   UNL     1      33.402 -17.626 -21.139  0.00  0.00    -0.294 OA
ATOM      4  C   UNL     1      34.238 -18.422 -21.566  0.00  0.00    +0.154 C 
BRANCH   4   5
ATOM      5  C   UNL     1      34.495 -19.673 -20.794  0.00  0.00    +0.033 C 
ATOM      6  C   UNL     1      33.419 -20.392 -20.327  0.00  0.00    +0.003 C 
ATOM      7  C   UNL     1      35.799 -20.058 -20.579  0.00  0.00    +0.003 C 
ATOM      8  C   UNL     1      33.661 -21.561 -19.605  0.00  0.00    +0.000 C 
ATOM      9  C   UNL     1      36.040 -21.227 -19.857  0.00  0.00    +0.000 C 
ATOM     10  C   UNL     1      34.970 -21.978 -19.370  0.00  0.00    +0.000 C 
ENDBRANCH   4   5
ENDBRANCH   1   4
BRANCH   1  11
ATOM     11  N   UNL     1      34.406 -17.003 -23.504  0.00  0.00    +0.393 N 
ATOM     12  H   UNL     1      33.475 -16.866 -23.110  0.00  0.00    -0.079 HD
BRANCH  11  13
ATOM     13  C   UNL     1      34.270 -17.247 -24.940  0.00  0.00    -0.077 C 
ATOM     14  C   UNL     1      33.805 -16.022 -25.657  0.00  0.00    -0.025 C 
ENDBRANCH  11  13
BRANCH  11  15
ATOM     15  C   UNL     1      35.193 -15.794 -23.263  0.00  0.00    -0.077 C 
ATOM     16  C   UNL     1      34.426 -14.799 -22.454  0.00  0.00    -0.025 C 
ENDBRANCH  11  15
ENDBRANCH   1  11
TORSDOF 5
ENDMDL
MODEL 7
REMARK VINA RESULT:      -7.0      1.555      5.421
REMARK  Name = 7029
REMARK  5 active torsions:
REMARK  status: ('A' for Active; 'I' for Inactive)
REMARK    1  A    between atoms: C_1  and  C_4
REMARK    2  A    between atoms: C_1  and  N_11
REMARK    3  A    between atoms: C_4  and  C_5
REMARK    4  A    between atoms: N_11  and  C_13
REMARK    5  A    between atoms: N_11  and  C_15
REMARK                            x       y       z     vdW  Elec       q    Type
REMARK                         _______ _______ _______ _____ _____    ______ ____
ROOT
ATOM      1  C   UNL     1      35.826 -18.990 -21.576  0.00  0.00    +0.006 C 
ATOM      2  C   UNL     1      37.349 -19.006 -21.536  0.00  0.00    -0.015 C 
ENDROOT
BRANCH   1   4
ATOM      3  O   UNL     1      35.290 -16.917 -20.465  0.00  0.00    -0.294 OA
ATOM      4  C   UNL     1      35.313 -17.555 -21.517  0.00  0.00    +0.154 C 
BRANCH   4   5
ATOM      5  C   UNL     1      34.804 -16.904 -22.761  0.00  0.00    +0.033 C 
ATOM      6  C   UNL     1      34.853 -17.609 -23.940  0.00  0.00    +0.003 C 
ATOM      7  C   UNL     1      34.308 -15.623 -22.677  0.00  0.00    +0.003 C 
ATOM      8  C   UNL     1      34.379 -17.000 -25.102  0.00  0.00    +0.000 C 
ATOM      9  C   UNL     1      33.833 -15.014 -23.839  0.00  0.00    +0.000 C 
ATOM     10  C   UNL     1      33.869 -15.703 -25.051  0.00  0.00    +0.000 C 
ENDBRANCH   4   5
ENDBRANCH   1   4
BRANCH   1  11
ATOM     11  N   UNL     1      35.298 -19.692 -20.407  0.00  0.00    +0.393 N 
ATOM     12  H   UNL     1      35.000 -18.998 -19.721  0.00  0.00    -0.079 HD
BRANCH  11  13
ATOM     13  C   UNL     1      36.333 -20.529 -19.801  0.00  0.00    -0.077 C 
ATOM     14  C   UNL     1      35.735 -21.678 -19.056  0.00  0.00    -0.025 C 
ENDBRANCH  11  13
BRANCH  11  15
ATOM     15  C   UNL     1      34.137 -20.502 -20.779  0.00  0.00    -0.077 C 
ATOM     16  C   UNL     1      32.860 -19.770 -20.525  0.00  0.00    -0.025 C 
ENDBRANCH  11  15
ENDBRANCH   1  11
TORSDOF 5
ENDMDL
MODEL 8
REMARK VINA RESULT:      -6.9      2.592      6.663
REMARK  Name = 7029
REMARK  5 active torsions:
REMARK  status: ('A' for Active; 'I' for Inactive)
REMARK    1  A    between atoms: C_1  and  C_4
REMARK    2  A    between atoms: C_1  and  N_11
REMARK    3  A    between atoms: C_4  and  C_5
REMARK    4  A    between atoms: N_11  and  C_13
REMARK    5  A    between atoms: N_11  and  C_15
REMARK                            x       y       z     vdW  Elec       q    Type
REMARK                         _______ _______ _______ _____ _____    ______ ____
ROOT
ATOM      1  C   UNL     1      34.507 -15.295 -22.153  0.00  0.00    +0.006 C 
ATOM      2  C   UNL     1      34.544 -15.087 -20.644  0.00  0.00    -0.015 C 
ENDROOT
BRANCH   1   4
ATOM      3  O   UNL     1      32.161 -14.738 -22.196  0.00  0.00    -0.294 OA
ATOM      4  C   UNL     1      33.259 -14.648 -22.744  0.00  0.00    +0.154 C 
BRANCH   4   5
ATOM      5  C   UNL     1      33.358 -13.899 -24.031  0.00  0.00    +0.033 C 
ATOM      6  C   UNL     1      33.037 -14.550 -25.199  0.00  0.00    +0.003 C 
ATOM      7  C   UNL     1      33.768 -12.585 -23.998  0.00  0.00    +0.003 C 
ATOM      8  C   UNL     1      33.131 -13.849 -26.402  0.00  0.00    +0.000 C 
ATOM      9  C   UNL     1      33.861 -11.885 -25.201  0.00  0.00    +0.000 C 
ATOM     10  C   UNL     1      33.542 -12.517 -26.402  0.00  0.00    +0.000 C 
ENDBRANCH   4   5
ENDBRANCH   1   4
BRANCH   1  11
ATOM     11  N   UNL     1      34.441 -16.726 -22.449  0.00  0.00    +0.393 N 
ATOM     12  H   UNL     1      33.483 -16.956 -22.714  0.00  0.00    -0.079 HD
BRANCH  11  13
ATOM     13  C   UNL     1      34.796 -17.510 -21.267  0.00  0.00    -0.077 C 
ATOM     14  C   UNL     1      34.052 -18.806 -21.232  0.00  0.00    -0.025 C 
ENDBRANCH  11  13
BRANCH  11  15
ATOM     15  C   UNL     1      35.324 -17.057 -23.568  0.00  0.00    -0.077 C 
ATOM     16  C   UNL     1      34.591 -17.801 -24.636  0.00  0.00    -0.025 C 
ENDBRANCH  11  15
ENDBRANCH   1  11
TORSDOF 5
ENDMDL
MODEL 9
REMARK VINA RESULT:      -6.8      0.438      2.097
REMARK  Name = 7029
REMARK  5 active torsions:
REMARK  status: ('A' for Active; 'I' for Inactive)
REMARK    1  A    between atoms: C_1  and  C_4
REMARK    2  A    between atoms: C_1  and  N_11
REMARK    3  A    between atoms: C_4  and  C_5
REMARK    4  A    between atoms: N_11  and  C_13
REMARK    5  A    between atoms: N_11  and  C_15
REMARK                            x       y       z     vdW  Elec       q    Type
REMARK                         _______ _______ _______ _____ _____    ______ ____
ROOT
ATOM      1  C   UNL     1      34.406 -17.518 -21.557  0.00  0.00    +0.006 C 
ATOM      2  C   UNL     1      34.814 -16.213 -20.885  0.00  0.00    -0.015 C 
ENDROOT
BRANCH   1   4
ATOM      3  O   UNL     1      36.605 -18.509 -21.510  0.00  0.00    -0.294 OA
ATOM      4  C   UNL     1      35.412 -18.617 -21.229  0.00  0.00    +0.154 C 
BRANCH   4   5
ATOM      5  C   UNL     1      34.943 -19.869 -20.565  0.00  0.00    +0.033 C 
ATOM      6  C   UNL     1      35.882 -20.751 -20.084  0.00  0.00    +0.003 C 
ATOM      7  C   UNL     1      33.588 -20.091 -20.460  0.00  0.00    +0.003 C 
ATOM      8  C   UNL     1      35.443 -21.921 -19.464  0.00  0.00    +0.000 C 
ATOM      9  C   UNL     1      33.150 -21.261 -19.839  0.00  0.00    +0.000 C 
ATOM     10  C   UNL     1      34.078 -22.175 -19.341  0.00  0.00    +0.000 C 
ENDBRANCH   4   5
ENDBRANCH   1   4
BRANCH   1  11
ATOM     11  N   UNL     1      34.408 -17.343 -23.009  0.00  0.00    +0.393 N 
ATOM     12  H   UNL     1      33.447 -17.409 -23.343  0.00  0.00    -0.079 HD
BRANCH  11  13
ATOM     13  C   UNL     1      35.196 -18.394 -23.651  0.00  0.00    -0.077 C 
ATOM     14  C   UNL     1      34.451 -19.012 -24.790  0.00  0.00    -0.025 C 
ENDBRANCH  11  13
BRANCH  11  15
ATOM     15  C   UNL     1      34.931 -16.023 -23.363  0.00  0.00    -0.077 C 
ATOM     16  C   UNL     1      33.996 -15.294 -24.272  0.00  0.00    -0.025 C 
ENDBRANCH  11  15
ENDBRANCH   1  11
TORSDOF 5
ENDMDL
