MODEL 1
REMARK VINA RESULT:      -5.3      0.000      0.000
REMARK  Name = 6950298
REMARK  5 active torsions:
REMARK  status: ('A' for Active; 'I' for Inactive)
REMARK    1  A    between atoms: CA_1  and  N_2
REMARK    2  A    between atoms: CA_1  and  CB_6
REMARK    3  A    between atoms: CA_1  and  C_14
REMARK    4  A    between atoms: CB_6  and  CG_9
REMARK    5  A    between atoms: C_14  and  O_15
REMARK                            x       y       z     vdW  Elec       q    Type
REMARK                         _______ _______ _______ _____ _____    ______ ____
ROOT
ATOM      1  CA  HIS A   1      36.814 -24.345 -12.113  0.00  0.00    -0.030 C 
ENDROOT
BRANCH   1   2
ATOM      2  N   HIS A   1      37.892 -23.570 -11.427  0.00  0.00    +0.384 N 
ATOM      3  H1  HIS A   1      37.913 -23.820 -10.438  0.00  0.00    -0.089 HD
ATOM      4  H2  HIS A   1      37.704 -22.571 -11.520  0.00  0.00    -0.089 HD
ATOM      5  H3  HIS A   1      38.793 -23.788 -11.853  0.00  0.00    -0.089 HD
ENDBRANCH   1   2
BRANCH   1   6
ATOM      6  CB  HIS A   1      37.380 -25.685 -12.600  0.00  0.00    +0.023 C 
BRANCH   6   9
ATOM      7  ND1 HIS A   1      39.629 -26.121 -13.576  0.00  0.00    -0.319 N 
ATOM      8  NE2 HIS A   1      39.602 -25.005 -15.496  0.00  0.00    -0.315 N 
ATOM      9  CG  HIS A   1      38.426 -25.529 -13.679  0.00  0.00    +0.035 C 
ATOM     10  CD2 HIS A   1      38.406 -24.848 -14.842  0.00  0.00    +0.069 C 
ATOM     11  CE1 HIS A   1      40.316 -25.776 -14.706  0.00  0.00    +0.182 C 
ATOM     12  HD1 HIS A   1      39.949 -26.689 -12.838  0.00  0.00    +0.148 HD
ATOM     13  HE2 HIS A   1      39.868 -24.623 -16.363  0.00  0.00    +0.148 HD
ENDBRANCH   6   9
ENDBRANCH   1   6
BRANCH   1  14
ATOM     14  C   HIS A   1      35.679 -24.547 -11.110  0.00  0.00    +0.116 C 
BRANCH  14  15
ATOM     15  O   HIS A   1      36.109 -24.211  -9.797  0.00  0.00    -0.384 OA
ATOM     16  H   HIS A   1      36.894 -24.733  -9.570  0.00  0.00    +0.210 HD
ENDBRANCH  14  15
ENDBRANCH   1  14
TORSDOF 5
ENDMDL
MODEL 2
REMARK VINA RESULT:      -5.1      2.758      4.642
REMARK  Name = 6950298
REMARK  5 active torsions:
REMARK  status: ('A' for Active; 'I' for Inactive)
REMARK    1  A    between atoms: CA_1  and  N_2
REMARK    2  A    between atoms: CA_1  and  CB_6
REMARK    3  A    between atoms: CA_1  and  C_14
REMARK    4  A    between atoms: CB_6  and  CG_9
REMARK    5  A    between atoms: C_14  and  O_15
REMARK                            x       y       z     vdW  Elec       q    Type
REMARK                         _______ _______ _______ _____ _____    ______ ____
ROOT
ATOM      1  CA  HIS A   1      39.381 -25.078 -14.142  0.00  0.00    -0.030 C 
ENDROOT
BRANCH   1   2
ATOM      2  N   HIS A   1      38.645 -24.597 -15.351  0.00  0.00    +0.384 N 
ATOM      3  H1  HIS A   1      38.513 -23.587 -15.289  0.00  0.00    -0.089 HD
ATOM      4  H2  HIS A   1      37.735 -25.055 -15.398  0.00  0.00    -0.089 HD
ATOM      5  H3  HIS A   1      39.183 -24.820 -16.188  0.00  0.00    -0.089 HD
ENDBRANCH   1   2
BRANCH   1   6
ATOM      6  CB  HIS A   1      38.388 -25.715 -13.161  0.00  0.00    +0.023 C 
BRANCH   6   9
ATOM      7  ND1 HIS A   1      37.861 -23.804 -11.654  0.00  0.00    -0.319 N 
ATOM      8  NE2 HIS A   1      35.683 -23.480 -11.946  0.00  0.00    -0.315 N 
ATOM      9  CG  HIS A   1      37.436 -24.714 -12.548  0.00  0.00    +0.035 C 
ATOM     10  CD2 HIS A   1      36.114 -24.521 -12.728  0.00  0.00    +0.069 C 
ATOM     11  CE1 HIS A   1      36.760 -23.070 -11.311  0.00  0.00    +0.182 C 
ATOM     12  HD1 HIS A   1      38.779 -23.689 -11.316  0.00  0.00    +0.148 HD
ATOM     13  HE2 HIS A   1      34.770 -23.119 -11.874  0.00  0.00    +0.148 HD
ENDBRANCH   6   9
ENDBRANCH   1   6
BRANCH   1  14
ATOM     14  C   HIS A   1      40.431 -26.085 -14.608  0.00  0.00    +0.116 C 
BRANCH  14  15
ATOM     15  O   HIS A   1      40.573 -26.038 -16.023  0.00  0.00    -0.384 OA
ATOM     16  H   HIS A   1      40.321 -25.158 -16.344  0.00  0.00    +0.210 HD
ENDBRANCH  14  15
ENDBRANCH   1  14
TORSDOF 5
ENDMDL
MODEL 3
REMARK VINA RESULT:      -5.1      9.986     11.205
REMARK  Name = 6950298
REMARK  5 active torsions:
REMARK  status: ('A' for Active; 'I' for Inactive)
REMARK    1  A    between atoms: CA_1  and  N_2
REMARK    2  A    between atoms: CA_1  and  CB_6
REMARK    3  A    between atoms: CA_1  and  C_14
REMARK    4  A    between atoms: CB_6  and  CG_9
REMARK    5  A    between atoms: C_14  and  O_15
REMARK                            x       y       z     vdW  Elec       q    Type
REMARK                         _______ _______ _______ _____ _____    ______ ____
ROOT
ATOM      1  CA  HIS A   1      34.894 -17.885 -22.277  0.00  0.00    -0.030 C 
ENDROOT
BRANCH   1   2
ATOM      2  N   HIS A   1      35.684 -17.932 -23.544  0.00  0.00    +0.384 N 
ATOM      3  H1  HIS A   1      36.342 -18.711 -23.507  0.00  0.00    -0.089 HD
ATOM      4  H2  HIS A   1      36.200 -17.058 -23.655  0.00  0.00    -0.089 HD
ATOM      5  H3  HIS A   1      35.053 -18.056 -24.336  0.00  0.00    -0.089 HD
ENDBRANCH   1   2
BRANCH   1   6
ATOM      6  CB  HIS A   1      35.509 -18.853 -21.257  0.00  0.00    +0.023 C 
BRANCH   6   9
ATOM      7  ND1 HIS A   1      34.888 -20.845 -19.898  0.00  0.00    -0.319 N 
ATOM      8  NE2 HIS A   1      32.674 -20.924 -20.052  0.00  0.00    -0.315 N 
ATOM      9  CG  HIS A   1      34.502 -19.813 -20.669  0.00  0.00    +0.035 C 
ATOM     10  CD2 HIS A   1      33.158 -19.857 -20.766  0.00  0.00    +0.069 C 
ATOM     11  CE1 HIS A   1      33.741 -21.498 -19.542  0.00  0.00    +0.182 C 
ATOM     12  HD1 HIS A   1      35.809 -21.081 -19.643  0.00  0.00    +0.148 HD
ATOM     13  HE2 HIS A   1      31.734 -21.200 -19.945  0.00  0.00    +0.148 HD
ENDBRANCH   6   9
ENDBRANCH   1   6
BRANCH   1  14
ATOM     14  C   HIS A   1      34.918 -16.445 -21.768  0.00  0.00    +0.116 C 
BRANCH  14  15
ATOM     15  O   HIS A   1      35.095 -16.418 -20.357  0.00  0.00    -0.384 OA
ATOM     16  H   HIS A   1      36.015 -16.635 -20.142  0.00  0.00    +0.210 HD
ENDBRANCH  14  15
ENDBRANCH   1  14
TORSDOF 5
ENDMDL
MODEL 4
REMARK VINA RESULT:      -5.1     10.602     11.829
REMARK  Name = 6950298
REMARK  5 active torsions:
REMARK  status: ('A' for Active; 'I' for Inactive)
REMARK    1  A    between atoms: CA_1  and  N_2
REMARK    2  A    between atoms: CA_1  and  CB_6
REMARK    3  A    between atoms: CA_1  and  C_14
REMARK    4  A    between atoms: CB_6  and  CG_9
REMARK    5  A    between atoms: C_14  and  O_15
REMARK                            x       y       z     vdW  Elec       q    Type
REMARK                         _______ _______ _______ _____ _____    ______ ____
ROOT
ATOM      1  CA  HIS A   1      34.984 -18.211 -22.853  0.00  0.00    -0.030 C 
ENDROOT
BRANCH   1   2
ATOM      2  N   HIS A   1      36.473 -18.291 -22.757  0.00  0.00    +0.384 N 
ATOM      3  H1  HIS A   1      36.784 -17.829 -21.902  0.00  0.00    -0.089 HD
ATOM      4  H2  HIS A   1      36.891 -17.827 -23.565  0.00  0.00    -0.089 HD
ATOM      5  H3  HIS A   1      36.761 -19.270 -22.740  0.00  0.00    -0.089 HD
ENDBRANCH   1   2
BRANCH   1   6
ATOM      6  CB  HIS A   1      34.391 -18.049 -21.447  0.00  0.00    +0.023 C 
BRANCH   6   9
ATOM      7  ND1 HIS A   1      34.925 -20.152 -20.225  0.00  0.00    -0.319 N 
ATOM      8  NE2 HIS A   1      32.960 -21.172 -20.037  0.00  0.00    -0.315 N 
ATOM      9  CG  HIS A   1      34.006 -19.365 -20.813  0.00  0.00    +0.035 C 
ATOM     10  CD2 HIS A   1      32.812 -19.981 -20.702  0.00  0.00    +0.069 C 
ATOM     11  CE1 HIS A   1      34.245 -21.245 -19.764  0.00  0.00    +0.182 C 
ATOM     12  HD1 HIS A   1      35.890 -19.976 -20.143  0.00  0.00    +0.148 HD
ATOM     13  HE2 HIS A   1      32.261 -21.828 -19.814  0.00  0.00    +0.148 HD
ENDBRANCH   6   9
ENDBRANCH   1   6
BRANCH   1  14
ATOM     14  C   HIS A   1      34.641 -17.019 -23.745  0.00  0.00    +0.116 C 
BRANCH  14  15
ATOM     15  O   HIS A   1      35.660 -16.030 -23.670  0.00  0.00    -0.384 OA
ATOM     16  H   HIS A   1      35.341 -15.205 -24.068  0.00  0.00    +0.210 HD
ENDBRANCH  14  15
ENDBRANCH   1  14
TORSDOF 5
ENDMDL
MODEL 5
REMARK VINA RESULT:      -5.1      9.405     10.563
REMARK  Name = 6950298
REMARK  5 active torsions:
REMARK  status: ('A' for Active; 'I' for Inactive)
REMARK    1  A    between atoms: CA_1  and  N_2
REMARK    2  A    between atoms: CA_1  and  CB_6
REMARK    3  A    between atoms: CA_1  and  C_14
REMARK    4  A    between atoms: CB_6  and  CG_9
REMARK    5  A    between atoms: C_14  and  O_15
REMARK                            x       y       z     vdW  Elec       q    Type
REMARK                         _______ _______ _______ _____ _____    ______ ____
ROOT
ATOM      1  CA  HIS A   1      35.097 -19.050 -21.478  0.00  0.00    -0.030 C 
ENDROOT
BRANCH   1   2
ATOM      2  N   HIS A   1      35.392 -17.749 -20.804  0.00  0.00    +0.384 N 
ATOM      3  H1  HIS A   1      34.693 -17.574 -20.081  0.00  0.00    -0.089 HD
ATOM      4  H2  HIS A   1      35.363 -16.996 -21.492  0.00  0.00    -0.089 HD
ATOM      5  H3  HIS A   1      36.318 -17.787 -20.379  0.00  0.00    -0.089 HD
ENDBRANCH   1   2
BRANCH   1   6
ATOM      6  CB  HIS A   1      33.758 -19.597 -20.966  0.00  0.00    +0.023 C 
BRANCH   6   9
ATOM      7  ND1 HIS A   1      32.853 -21.329 -19.421  0.00  0.00    -0.319 N 
ATOM      8  NE2 HIS A   1      34.664 -22.384 -18.686  0.00  0.00    -0.315 N 
ATOM      9  CG  HIS A   1      33.919 -20.751 -20.003  0.00  0.00    +0.035 C 
ATOM     10  CD2 HIS A   1      35.021 -21.388 -19.559  0.00  0.00    +0.069 C 
ATOM     11  CE1 HIS A   1      33.352 -22.321 -18.624  0.00  0.00    +0.182 C 
ATOM     12  HD1 HIS A   1      31.907 -21.086 -19.545  0.00  0.00    +0.148 HD
ATOM     13  HE2 HIS A   1      35.258 -23.008 -18.209  0.00  0.00    +0.148 HD
ENDBRANCH   6   9
ENDBRANCH   1   6
BRANCH   1  14
ATOM     14  C   HIS A   1      35.058 -18.794 -22.983  0.00  0.00    +0.116 C 
BRANCH  14  15
ATOM     15  O   HIS A   1      35.930 -17.725 -23.330  0.00  0.00    -0.384 OA
ATOM     16  H   HIS A   1      35.407 -16.933 -23.530  0.00  0.00    +0.210 HD
ENDBRANCH  14  15
ENDBRANCH   1  14
TORSDOF 5
ENDMDL
MODEL 6
REMARK VINA RESULT:      -5.0      9.267     10.267
REMARK  Name = 6950298
REMARK  5 active torsions:
REMARK  status: ('A' for Active; 'I' for Inactive)
REMARK    1  A    between atoms: CA_1  and  N_2
REMARK    2  A    between atoms: CA_1  and  CB_6
REMARK    3  A    between atoms: CA_1  and  C_14
REMARK    4  A    between atoms: CB_6  and  CG_9
REMARK    5  A    between atoms: C_14  and  O_15
REMARK                            x       y       z     vdW  Elec       q    Type
REMARK                         _______ _______ _______ _____ _____    ______ ____
ROOT
ATOM      1  CA  HIS A   1      33.881 -21.370 -20.064  0.00  0.00    -0.030 C 
ENDROOT
BRANCH   1   2
ATOM      2  N   HIS A   1      32.726 -20.459 -19.797  0.00  0.00    +0.384 N 
ATOM      3  H1  HIS A   1      31.903 -20.799 -20.295  0.00  0.00    -0.089 HD
ATOM      4  H2  HIS A   1      32.954 -19.518 -20.122  0.00  0.00    -0.089 HD
ATOM      5  H3  HIS A   1      32.533 -20.436 -18.796  0.00  0.00    -0.089 HD
ENDBRANCH   1   2
BRANCH   1   6
ATOM      6  CB  HIS A   1      35.173 -20.545 -20.138  0.00  0.00    +0.023 C 
BRANCH   6   9
ATOM      7  ND1 HIS A   1      35.390 -18.149 -20.781  0.00  0.00    -0.319 N 
ATOM      8  NE2 HIS A   1      34.835 -18.123 -22.932  0.00  0.00    -0.315 N 
ATOM      9  CG  HIS A   1      35.095 -19.413 -21.136  0.00  0.00    +0.035 C 
ATOM     10  CD2 HIS A   1      34.757 -19.401 -22.440  0.00  0.00    +0.069 C 
ATOM     11  CE1 HIS A   1      35.218 -17.393 -21.907  0.00  0.00    +0.182 C 
ATOM     12  HD1 HIS A   1      35.672 -17.834 -19.892  0.00  0.00    +0.148 HD
ATOM     13  HE2 HIS A   1      34.644 -17.818 -23.848  0.00  0.00    +0.148 HD
ENDBRANCH   6   9
ENDBRANCH   1   6
BRANCH   1  14
ATOM     14  C   HIS A   1      33.935 -22.393 -18.931  0.00  0.00    +0.116 C 
BRANCH  14  15
ATOM     15  O   HIS A   1      33.922 -23.716 -19.453  0.00  0.00    -0.384 OA
ATOM     16  H   HIS A   1      34.771 -24.146 -19.265  0.00  0.00    +0.210 HD
ENDBRANCH  14  15
ENDBRANCH   1  14
TORSDOF 5
ENDMDL
MODEL 7
REMARK VINA RESULT:      -5.0     11.017     12.103
REMARK  Name = 6950298
REMARK  5 active torsions:
REMARK  status: ('A' for Active; 'I' for Inactive)
REMARK    1  A    between atoms: CA_1  and  N_2
REMARK    2  A    between atoms: CA_1  and  CB_6
REMARK    3  A    between atoms: CA_1  and  C_14
REMARK    4  A    between atoms: CB_6  and  CG_9
REMARK    5  A    between atoms: C_14  and  O_15
REMARK                            x       y       z     vdW  Elec       q    Type
REMARK                         _______ _______ _______ _____ _____    ______ ____
ROOT
ATOM      1  CA  HIS A   1      34.303 -19.374 -20.989  0.00  0.00    -0.030 C 
ENDROOT
BRANCH   1   2
ATOM      2  N   HIS A   1      35.205 -20.182 -20.113  0.00  0.00    +0.384 N 
ATOM      3  H1  HIS A   1      36.038 -20.451 -20.638  0.00  0.00    -0.089 HD
ATOM      4  H2  HIS A   1      34.714 -21.022 -19.803  0.00  0.00    -0.089 HD
ATOM      5  H3  HIS A   1      35.478 -19.628 -19.301  0.00  0.00    -0.089 HD
ENDBRANCH   1   2
BRANCH   1   6
ATOM      6  CB  HIS A   1      34.710 -19.569 -22.456  0.00  0.00    +0.023 C 
BRANCH   6   9
ATOM      7  ND1 HIS A   1      34.573 -18.167 -24.509  0.00  0.00    -0.319 N 
ATOM      8  NE2 HIS A   1      35.277 -16.170 -23.838  0.00  0.00    -0.315 N 
ATOM      9  CG  HIS A   1      34.873 -18.265 -23.202  0.00  0.00    +0.035 C 
ATOM     10  CD2 HIS A   1      35.302 -17.055 -22.791  0.00  0.00    +0.069 C 
ATOM     11  CE1 HIS A   1      34.834 -16.871 -24.859  0.00  0.00    +0.182 C 
ATOM     12  HD1 HIS A   1      34.235 -18.882 -25.095  0.00  0.00    +0.148 HD
ATOM     13  HE2 HIS A   1      35.535 -15.220 -23.830  0.00  0.00    +0.148 HD
ENDBRANCH   6   9
ENDBRANCH   1   6
BRANCH   1  14
ATOM     14  C   HIS A   1      32.871 -19.843 -20.738  0.00  0.00    +0.116 C 
BRANCH  14  15
ATOM     15  O   HIS A   1      32.828 -20.750 -19.642  0.00  0.00    -0.384 OA
ATOM     16  H   HIS A   1      32.479 -20.295 -18.860  0.00  0.00    +0.210 HD
ENDBRANCH  14  15
ENDBRANCH   1  14
TORSDOF 5
ENDMDL
MODEL 8
REMARK VINA RESULT:      -5.0      3.066      3.264
REMARK  Name = 6950298
REMARK  5 active torsions:
REMARK  status: ('A' for Active; 'I' for Inactive)
REMARK    1  A    between atoms: CA_1  and  N_2
REMARK    2  A    between atoms: CA_1  and  CB_6
REMARK    3  A    between atoms: CA_1  and  C_14
REMARK    4  A    between atoms: CB_6  and  CG_9
REMARK    5  A    between atoms: C_14  and  O_15
REMARK                            x       y       z     vdW  Elec       q    Type
REMARK                         _______ _______ _______ _____ _____    ______ ____
ROOT
ATOM      1  CA  HIS A   1      33.918 -24.245 -13.592  0.00  0.00    -0.030 C 
ENDROOT
BRANCH   1   2
ATOM      2  N   HIS A   1      32.844 -23.209 -13.515  0.00  0.00    +0.384 N 
ATOM      3  H1  HIS A   1      32.602 -22.899 -14.457  0.00  0.00    -0.089 HD
ATOM      4  H2  HIS A   1      33.178 -22.412 -12.972  0.00  0.00    -0.089 HD
ATOM      5  H3  HIS A   1      32.019 -23.606 -13.065  0.00  0.00    -0.089 HD
ENDBRANCH   1   2
BRANCH   1   6
ATOM      6  CB  HIS A   1      34.602 -24.169 -14.964  0.00  0.00    +0.023 C 
BRANCH   6   9
ATOM      7  ND1 HIS A   1      35.798 -26.350 -15.071  0.00  0.00    -0.319 N 
ATOM      8  NE2 HIS A   1      37.941 -25.778 -15.172  0.00  0.00    -0.315 N 
ATOM      9  CG  HIS A   1      35.856 -25.007 -15.047  0.00  0.00    +0.035 C 
ATOM     10  CD2 HIS A   1      37.156 -24.655 -15.106  0.00  0.00    +0.069 C 
ATOM     11  CE1 HIS A   1      37.092 -26.782 -15.148  0.00  0.00    +0.182 C 
ATOM     12  HD1 HIS A   1      34.987 -26.908 -15.041  0.00  0.00    +0.148 HD
ATOM     13  HE2 HIS A   1      38.924 -25.823 -15.224  0.00  0.00    +0.148 HD
ENDBRANCH   6   9
ENDBRANCH   1   6
BRANCH   1  14
ATOM     14  C   HIS A   1      34.906 -23.973 -12.458  0.00  0.00    +0.116 C 
BRANCH  14  15
ATOM     15  O   HIS A   1      34.962 -25.082 -11.570  0.00  0.00    -0.384 OA
ATOM     16  H   HIS A   1      35.639 -24.921 -10.894  0.00  0.00    +0.210 HD
ENDBRANCH  14  15
ENDBRANCH   1  14
TORSDOF 5
ENDMDL
MODEL 9
REMARK VINA RESULT:      -4.8      1.573      1.956
REMARK  Name = 6950298
REMARK  5 active torsions:
REMARK  status: ('A' for Active; 'I' for Inactive)
REMARK    1  A    between atoms: CA_1  and  N_2
REMARK    2  A    between atoms: CA_1  and  CB_6
REMARK    3  A    between atoms: CA_1  and  C_14
REMARK    4  A    between atoms: CB_6  and  CG_9
REMARK    5  A    between atoms: C_14  and  O_15
REMARK                            x       y       z     vdW  Elec       q    Type
REMARK                         _______ _______ _______ _____ _____    ______ ____
ROOT
ATOM      1  CA  HIS A   1      36.002 -24.634 -12.849  0.00  0.00    -0.030 C 
ENDROOT
BRANCH   1   2
ATOM      2  N   HIS A   1      34.531 -24.736 -13.092  0.00  0.00    +0.384 N 
ATOM      3  H1  HIS A   1      34.360 -25.330 -13.904  0.00  0.00    -0.089 HD
ATOM      4  H2  HIS A   1      34.150 -23.805 -13.267  0.00  0.00    -0.089 HD
ATOM      5  H3  HIS A   1      34.077 -25.140 -12.272  0.00  0.00    -0.089 HD
ENDBRANCH   1   2
BRANCH   1   6
ATOM      6  CB  HIS A   1      36.719 -24.357 -14.177  0.00  0.00    +0.023 C 
BRANCH   6   9
ATOM      7  ND1 HIS A   1      38.915 -24.738 -15.289  0.00  0.00    -0.319 N 
ATOM      8  NE2 HIS A   1      40.021 -26.024 -13.855  0.00  0.00    -0.315 N 
ATOM      9  CG  HIS A   1      38.107 -24.951 -14.235  0.00  0.00    +0.035 C 
ATOM     10  CD2 HIS A   1      38.774 -25.733 -13.363  0.00  0.00    +0.069 C 
ATOM     11  CE1 HIS A   1      40.074 -25.410 -15.017  0.00  0.00    +0.182 C 
ATOM     12  HD1 HIS A   1      38.712 -24.205 -16.092  0.00  0.00    +0.148 HD
ATOM     13  HE2 HIS A   1      40.722 -26.572 -13.434  0.00  0.00    +0.148 HD
ENDBRANCH   6   9
ENDBRANCH   1   6
BRANCH   1  14
ATOM     14  C   HIS A   1      36.229 -23.505 -11.845  0.00  0.00    +0.116 C 
BRANCH  14  15
ATOM     15  O   HIS A   1      36.927 -23.986 -10.703  0.00  0.00    -0.384 OA
ATOM     16  H   HIS A   1      37.140 -23.243 -10.118  0.00  0.00    +0.210 HD
ENDBRANCH  14  15
ENDBRANCH   1  14
TORSDOF 5
ENDMDL
