MODEL 1
REMARK VINA RESULT:      -7.4      0.000      0.000
REMARK  Name = 5910
REMARK  3 active torsions:
REMARK  status: ('A' for Active; 'I' for Inactive)
REMARK    1  A    between atoms: C_3  and  C_9
REMARK    2  A    between atoms: C_4  and  C_7
REMARK    3  A    between atoms: C_9  and  C_12
REMARK                            x       y       z     vdW  Elec       q    Type
REMARK                         _______ _______ _______ _____ _____    ______ ____
ROOT
ATOM      1  O   UNL     1      34.525 -18.575 -24.902  0.00  0.00    -0.448 OA
ATOM      2  O   UNL     1      34.871 -16.546 -25.907  0.00  0.00    -0.250 OA
ATOM      3  C   UNL     1      35.389 -18.101 -22.787  0.00  0.00    +0.060 C 
ATOM      4  C   UNL     1      35.140 -16.778 -23.503  0.00  0.00    +0.103 C 
ATOM      5  C   UNL     1      34.509 -19.064 -23.557  0.00  0.00    +0.209 C 
ATOM      6  C   UNL     1      34.851 -17.247 -24.907  0.00  0.00    +0.317 C 
ENDROOT
BRANCH   4   7
ATOM      7  C   UNL     1      33.971 -15.949 -22.990  0.00  0.00    +0.011 C 
ATOM      8  C   UNL     1      34.291 -14.463 -22.993  0.00  0.00    +0.001 C 
ENDBRANCH   4   7
BRANCH   3   9
ATOM      9  C   UNL     1      35.141 -18.130 -21.290  0.00  0.00    +0.047 C 
BRANCH   9  12
ATOM     10  N   UNL     1      34.599 -20.368 -20.311  0.00  0.00    -0.271 N 
ATOM     11  N   UNL     1      36.594 -21.245 -19.887  0.00  0.00    -0.225 NA
ATOM     12  C   UNL     1      35.519 -19.458 -20.697  0.00  0.00    +0.049 C 
ATOM     13  C   UNL     1      36.736 -19.995 -20.436  0.00  0.00    +0.111 C 
ATOM     14  C   UNL     1      35.296 -21.438 -19.825  0.00  0.00    +0.167 C 
ATOM     15  C   UNL     1      33.161 -20.262 -20.384  0.00  0.00    +0.119 C 
ENDBRANCH   9  12
ENDBRANCH   3   9
TORSDOF 3
ENDMDL
MODEL 2
REMARK VINA RESULT:      -7.2      2.061      3.067
REMARK  Name = 5910
REMARK  3 active torsions:
REMARK  status: ('A' for Active; 'I' for Inactive)
REMARK    1  A    between atoms: C_3  and  C_9
REMARK    2  A    between atoms: C_4  and  C_7
REMARK    3  A    between atoms: C_9  and  C_12
REMARK                            x       y       z     vdW  Elec       q    Type
REMARK                         _______ _______ _______ _____ _____    ______ ____
ROOT
ATOM      1  O   UNL     1      34.819 -15.208 -20.789  0.00  0.00    -0.448 OA
ATOM      2  O   UNL     1      34.068 -13.871 -22.492  0.00  0.00    -0.250 OA
ATOM      3  C   UNL     1      34.176 -17.287 -21.630  0.00  0.00    +0.060 C 
ATOM      4  C   UNL     1      34.146 -16.284 -22.778  0.00  0.00    +0.103 C 
ATOM      5  C   UNL     1      35.074 -16.605 -20.619  0.00  0.00    +0.209 C 
ATOM      6  C   UNL     1      34.314 -14.979 -22.039  0.00  0.00    +0.317 C 
ENDROOT
BRANCH   4   7
ATOM      7  C   UNL     1      35.245 -16.426 -23.821  0.00  0.00    +0.011 C 
ATOM      8  C   UNL     1      34.686 -16.831 -25.175  0.00  0.00    +0.001 C 
ENDBRANCH   4   7
BRANCH   3   9
ATOM      9  C   UNL     1      34.616 -18.700 -21.965  0.00  0.00    +0.047 C 
BRANCH   9  12
ATOM     10  N   UNL     1      34.804 -20.527 -20.266  0.00  0.00    -0.271 N 
ATOM     11  N   UNL     1      32.691 -20.972 -19.747  0.00  0.00    -0.225 NA
ATOM     12  C   UNL     1      34.035 -19.698 -21.003  0.00  0.00    +0.049 C 
ATOM     13  C   UNL     1      32.746 -19.972 -20.686  0.00  0.00    +0.111 C 
ATOM     14  C   UNL     1      33.947 -21.285 -19.517  0.00  0.00    +0.167 C 
ATOM     15  C   UNL     1      36.245 -20.621 -20.248  0.00  0.00    +0.119 C 
ENDBRANCH   9  12
ENDBRANCH   3   9
TORSDOF 3
ENDMDL
MODEL 3
REMARK VINA RESULT:      -6.9      3.178      5.621
REMARK  Name = 5910
REMARK  3 active torsions:
REMARK  status: ('A' for Active; 'I' for Inactive)
REMARK    1  A    between atoms: C_3  and  C_9
REMARK    2  A    between atoms: C_4  and  C_7
REMARK    3  A    between atoms: C_9  and  C_12
REMARK                            x       y       z     vdW  Elec       q    Type
REMARK                         _______ _______ _______ _____ _____    ______ ____
ROOT
ATOM      1  O   UNL     1      36.913 -19.573 -20.028  0.00  0.00    -0.448 OA
ATOM      2  O   UNL     1      36.714 -21.718 -19.247  0.00  0.00    -0.250 OA
ATOM      3  C   UNL     1      35.260 -19.616 -21.674  0.00  0.00    +0.060 C 
ATOM      4  C   UNL     1      35.032 -20.805 -20.746  0.00  0.00    +0.103 C 
ATOM      5  C   UNL     1      36.115 -18.696 -20.829  0.00  0.00    +0.209 C 
ATOM      6  C   UNL     1      36.300 -20.792 -19.928  0.00  0.00    +0.317 C 
ENDROOT
BRANCH   4   7
ATOM      7  C   UNL     1      33.826 -20.711 -19.822  0.00  0.00    +0.011 C 
ATOM      8  C   UNL     1      33.488 -22.057 -19.202  0.00  0.00    +0.001 C 
ENDBRANCH   4   7
BRANCH   3   9
ATOM      9  C   UNL     1      34.024 -18.937 -22.236  0.00  0.00    +0.047 C 
BRANCH   9  12
ATOM     10  N   UNL     1      34.564 -16.913 -23.605  0.00  0.00    -0.271 N 
ATOM     11  N   UNL     1      34.709 -17.709 -25.672  0.00  0.00    -0.225 NA
ATOM     12  C   UNL     1      34.324 -18.240 -23.533  0.00  0.00    +0.049 C 
ATOM     13  C   UNL     1      34.412 -18.723 -24.797  0.00  0.00    +0.111 C 
ATOM     14  C   UNL     1      34.793 -16.633 -24.923  0.00  0.00    +0.167 C 
ATOM     15  C   UNL     1      34.583 -15.955 -22.524  0.00  0.00    +0.119 C 
ENDBRANCH   9  12
ENDBRANCH   3   9
TORSDOF 3
ENDMDL
MODEL 4
REMARK VINA RESULT:      -6.8      3.068      5.292
REMARK  Name = 5910
REMARK  3 active torsions:
REMARK  status: ('A' for Active; 'I' for Inactive)
REMARK    1  A    between atoms: C_3  and  C_9
REMARK    2  A    between atoms: C_4  and  C_7
REMARK    3  A    between atoms: C_9  and  C_12
REMARK                            x       y       z     vdW  Elec       q    Type
REMARK                         _______ _______ _______ _____ _____    ______ ____
ROOT
ATOM      1  O   UNL     1      34.643 -17.824 -25.582  0.00  0.00    -0.448 OA
ATOM      2  O   UNL     1      34.669 -19.970 -24.779  0.00  0.00    -0.250 OA
ATOM      3  C   UNL     1      34.307 -16.676 -23.579  0.00  0.00    +0.060 C 
ATOM      4  C   UNL     1      34.766 -18.090 -23.240  0.00  0.00    +0.103 C 
ATOM      5  C   UNL     1      34.761 -16.515 -25.014  0.00  0.00    +0.209 C 
ATOM      6  C   UNL     1      34.678 -18.763 -24.588  0.00  0.00    +0.317 C 
ENDROOT
BRANCH   4   7
ATOM      7  C   UNL     1      36.180 -18.224 -22.693  0.00  0.00    +0.011 C 
ATOM      8  C   UNL     1      36.183 -18.745 -21.266  0.00  0.00    +0.001 C 
ENDBRANCH   4   7
BRANCH   3   9
ATOM      9  C   UNL     1      34.792 -15.561 -22.669  0.00  0.00    +0.047 C 
BRANCH   9  12
ATOM     10  N   UNL     1      32.892 -14.300 -21.639  0.00  0.00    -0.271 N 
ATOM     11  N   UNL     1      32.604 -12.582 -23.015  0.00  0.00    -0.225 NA
ATOM     12  C   UNL     1      33.809 -14.425 -22.622  0.00  0.00    +0.049 C 
ATOM     13  C   UNL     1      33.631 -13.375 -23.461  0.00  0.00    +0.111 C 
ATOM     14  C   UNL     1      32.180 -13.167 -21.917  0.00  0.00    +0.167 C 
ATOM     15  C   UNL     1      32.679 -15.172 -20.507  0.00  0.00    +0.119 C 
ENDBRANCH   9  12
ENDBRANCH   3   9
TORSDOF 3
ENDMDL
MODEL 5
REMARK VINA RESULT:      -6.8      3.971      6.068
REMARK  Name = 5910
REMARK  3 active torsions:
REMARK  status: ('A' for Active; 'I' for Inactive)
REMARK    1  A    between atoms: C_3  and  C_9
REMARK    2  A    between atoms: C_4  and  C_7
REMARK    3  A    between atoms: C_9  and  C_12
REMARK                            x       y       z     vdW  Elec       q    Type
REMARK                         _______ _______ _______ _____ _____    ______ ____
ROOT
ATOM      1  O   UNL     1      35.357 -17.359 -20.543  0.00  0.00    -0.448 OA
ATOM      2  O   UNL     1      36.787 -19.095 -20.978  0.00  0.00    -0.250 OA
ATOM      3  C   UNL     1      34.982 -16.622 -22.724  0.00  0.00    +0.060 C 
ATOM      4  C   UNL     1      35.580 -18.024 -22.796  0.00  0.00    +0.103 C 
ATOM      5  C   UNL     1      34.448 -16.562 -21.309  0.00  0.00    +0.209 C 
ATOM      6  C   UNL     1      36.004 -18.240 -21.364  0.00  0.00    +0.317 C 
ENDROOT
BRANCH   4   7
ATOM      7  C   UNL     1      34.632 -19.135 -23.222  0.00  0.00    +0.011 C 
ATOM      8  C   UNL     1      34.862 -19.546 -24.667  0.00  0.00    +0.001 C 
ENDBRANCH   4   7
BRANCH   3   9
ATOM      9  C   UNL     1      33.943 -16.265 -23.772  0.00  0.00    +0.047 C 
BRANCH   9  12
ATOM     10  N   UNL     1      33.424 -14.211 -25.102  0.00  0.00    -0.271 N 
ATOM     11  N   UNL     1      33.831 -12.555 -23.680  0.00  0.00    -0.225 NA
ATOM     12  C   UNL     1      33.828 -14.777 -23.946  0.00  0.00    +0.049 C 
ATOM     13  C   UNL     1      34.077 -13.764 -23.079  0.00  0.00    +0.111 C 
ATOM     14  C   UNL     1      33.440 -12.859 -24.897  0.00  0.00    +0.167 C 
ATOM     15  C   UNL     1      33.043 -14.871 -26.328  0.00  0.00    +0.119 C 
ENDBRANCH   9  12
ENDBRANCH   3   9
TORSDOF 3
ENDMDL
MODEL 6
REMARK VINA RESULT:      -6.8      9.005     10.608
REMARK  Name = 5910
REMARK  3 active torsions:
REMARK  status: ('A' for Active; 'I' for Inactive)
REMARK    1  A    between atoms: C_3  and  C_9
REMARK    2  A    between atoms: C_4  and  C_7
REMARK    3  A    between atoms: C_9  and  C_12
REMARK                            x       y       z     vdW  Elec       q    Type
REMARK                         _______ _______ _______ _____ _____    ______ ____
ROOT
ATOM      1  O   UNL     1      34.400 -23.902 -16.416  0.00  0.00    -0.448 OA
ATOM      2  O   UNL     1      32.263 -23.124 -16.690  0.00  0.00    -0.250 OA
ATOM      3  C   UNL     1      34.594 -23.667 -14.103  0.00  0.00    +0.060 C 
ATOM      4  C   UNL     1      33.114 -23.595 -14.462  0.00  0.00    +0.103 C 
ATOM      5  C   UNL     1      35.195 -24.350 -15.314  0.00  0.00    +0.209 C 
ATOM      6  C   UNL     1      33.176 -23.491 -15.966  0.00  0.00    +0.317 C 
ENDROOT
BRANCH   4   7
ATOM      7  C   UNL     1      32.269 -24.798 -14.067  0.00  0.00    +0.011 C 
ATOM      8  C   UNL     1      30.916 -24.379 -13.517  0.00  0.00    +0.001 C 
ENDBRANCH   4   7
BRANCH   3   9
ATOM      9  C   UNL     1      34.950 -24.348 -12.794  0.00  0.00    +0.047 C 
BRANCH   9  12
ATOM     10  N   UNL     1      37.359 -24.958 -12.498  0.00  0.00    -0.271 N 
ATOM     11  N   UNL     1      38.262 -23.113 -11.656  0.00  0.00    -0.225 NA
ATOM     12  C   UNL     1      36.367 -24.050 -12.388  0.00  0.00    +0.049 C 
ATOM     13  C   UNL     1      36.920 -22.924 -11.873  0.00  0.00    +0.111 C 
ATOM     14  C   UNL     1      38.493 -24.348 -12.041  0.00  0.00    +0.167 C 
ATOM     15  C   UNL     1      37.272 -26.312 -12.994  0.00  0.00    +0.119 C 
ENDBRANCH   9  12
ENDBRANCH   3   9
TORSDOF 3
ENDMDL
MODEL 7
REMARK VINA RESULT:      -6.6      1.764      2.105
REMARK  Name = 5910
REMARK  3 active torsions:
REMARK  status: ('A' for Active; 'I' for Inactive)
REMARK    1  A    between atoms: C_3  and  C_9
REMARK    2  A    between atoms: C_4  and  C_7
REMARK    3  A    between atoms: C_9  and  C_12
REMARK                            x       y       z     vdW  Elec       q    Type
REMARK                         _______ _______ _______ _____ _____    ______ ____
ROOT
ATOM      1  O   UNL     1      34.767 -15.824 -23.909  0.00  0.00    -0.448 OA
ATOM      2  O   UNL     1      34.598 -13.797 -22.854  0.00  0.00    -0.250 OA
ATOM      3  C   UNL     1      34.713 -17.226 -22.046  0.00  0.00    +0.060 C 
ATOM      4  C   UNL     1      34.204 -15.853 -21.618  0.00  0.00    +0.103 C 
ATOM      5  C   UNL     1      34.539 -17.190 -23.549  0.00  0.00    +0.209 C 
ATOM      6  C   UNL     1      34.549 -15.018 -22.826  0.00  0.00    +0.317 C 
ENDROOT
BRANCH   4   7
ATOM      7  C   UNL     1      32.713 -15.751 -21.333  0.00  0.00    +0.011 C 
ATOM      8  C   UNL     1      32.433 -14.905 -20.103  0.00  0.00    +0.001 C 
ENDBRANCH   4   7
BRANCH   3   9
ATOM      9  C   UNL     1      34.061 -18.433 -21.396  0.00  0.00    +0.047 C 
BRANCH   9  12
ATOM     10  N   UNL     1      34.750 -20.498 -20.162  0.00  0.00    -0.271 N 
ATOM     11  N   UNL     1      36.968 -20.381 -20.154  0.00  0.00    -0.225 NA
ATOM     12  C   UNL     1      35.087 -19.365 -20.814  0.00  0.00    +0.049 C 
ATOM     13  C   UNL     1      36.441 -19.295 -20.807  0.00  0.00    +0.111 C 
ATOM     14  C   UNL     1      35.923 -21.084 -19.777  0.00  0.00    +0.167 C 
ATOM     15  C   UNL     1      33.427 -21.015 -19.906  0.00  0.00    +0.119 C 
ENDBRANCH   9  12
ENDBRANCH   3   9
TORSDOF 3
ENDMDL
MODEL 8
REMARK VINA RESULT:      -6.5      7.621      9.810
REMARK  Name = 5910
REMARK  3 active torsions:
REMARK  status: ('A' for Active; 'I' for Inactive)
REMARK    1  A    between atoms: C_3  and  C_9
REMARK    2  A    between atoms: C_4  and  C_7
REMARK    3  A    between atoms: C_9  and  C_12
REMARK                            x       y       z     vdW  Elec       q    Type
REMARK                         _______ _______ _______ _____ _____    ______ ____
ROOT
ATOM      1  O   UNL     1      32.080  -6.779 -21.393  0.00  0.00    -0.448 OA
ATOM      2  O   UNL     1      32.916  -6.788 -19.260  0.00  0.00    -0.250 OA
ATOM      3  C   UNL     1      32.393  -9.027 -21.931  0.00  0.00    +0.060 C 
ATOM      4  C   UNL     1      32.499  -8.885 -20.416  0.00  0.00    +0.103 C 
ATOM      5  C   UNL     1      31.647  -7.771 -22.329  0.00  0.00    +0.209 C 
ATOM      6  C   UNL     1      32.546  -7.385 -20.259  0.00  0.00    +0.317 C 
ENDROOT
BRANCH   4   7
ATOM      7  C   UNL     1      31.339  -9.448 -19.607  0.00  0.00    +0.011 C 
ATOM      8  C   UNL     1      31.685 -10.792 -18.988  0.00  0.00    +0.001 C 
ENDBRANCH   4   7
BRANCH   3   9
ATOM      9  C   UNL     1      31.750 -10.297 -22.458  0.00  0.00    +0.047 C 
BRANCH   9  12
ATOM     10  N   UNL     1      32.886 -12.412 -23.163  0.00  0.00    -0.271 N 
ATOM     11  N   UNL     1      34.219 -11.758 -24.814  0.00  0.00    -0.225 NA
ATOM     12  C   UNL     1      32.705 -11.082 -23.312  0.00  0.00    +0.049 C 
ATOM     13  C   UNL     1      33.520 -10.685 -24.319  0.00  0.00    +0.111 C 
ATOM     14  C   UNL     1      33.814 -12.782 -24.096  0.00  0.00    +0.167 C 
ATOM     15  C   UNL     1      32.243 -13.295 -22.219  0.00  0.00    +0.119 C 
ENDBRANCH   9  12
ENDBRANCH   3   9
TORSDOF 3
ENDMDL
MODEL 9
REMARK VINA RESULT:      -6.5      9.100     11.461
REMARK  Name = 5910
REMARK  3 active torsions:
REMARK  status: ('A' for Active; 'I' for Inactive)
REMARK    1  A    between atoms: C_3  and  C_9
REMARK    2  A    between atoms: C_4  and  C_7
REMARK    3  A    between atoms: C_9  and  C_12
REMARK                            x       y       z     vdW  Elec       q    Type
REMARK                         _______ _______ _______ _____ _____    ______ ____
ROOT
ATOM      1  O   UNL     1      36.906 -23.902 -11.025  0.00  0.00    -0.448 OA
ATOM      2  O   UNL     1      39.028 -23.241 -11.584  0.00  0.00    -0.250 OA
ATOM      3  C   UNL     1      35.982 -24.047 -13.162  0.00  0.00    +0.060 C 
ATOM      4  C   UNL     1      37.500 -24.020 -13.306  0.00  0.00    +0.103 C 
ATOM      5  C   UNL     1      35.793 -24.472 -11.721  0.00  0.00    +0.209 C 
ATOM      6  C   UNL     1      37.926 -23.660 -11.904  0.00  0.00    +0.317 C 
ENDROOT
BRANCH   4   7
ATOM      7  C   UNL     1      38.157 -25.329 -13.720  0.00  0.00    +0.011 C 
ATOM      8  C   UNL     1      39.263 -25.105 -14.737  0.00  0.00    +0.001 C 
ENDBRANCH   4   7
BRANCH   3   9
ATOM      9  C   UNL     1      35.214 -24.911 -14.146  0.00  0.00    +0.047 C 
BRANCH   9  12
ATOM     10  N   UNL     1      33.583 -23.555 -15.472  0.00  0.00    -0.271 N 
ATOM     11  N   UNL     1      31.677 -23.803 -14.358  0.00  0.00    -0.225 NA
ATOM     12  C   UNL     1      33.845 -24.353 -14.416  0.00  0.00    +0.049 C 
ATOM     13  C   UNL     1      32.681 -24.503 -13.737  0.00  0.00    +0.111 C 
ATOM     14  C   UNL     1      32.254 -23.242 -15.398  0.00  0.00    +0.167 C 
ATOM     15  C   UNL     1      34.499 -23.102 -16.492  0.00  0.00    +0.119 C 
ENDBRANCH   9  12
ENDBRANCH   3   9
TORSDOF 3
ENDMDL
