MODEL 1
REMARK VINA RESULT:      -8.6      0.000      0.000
REMARK  Name = 447561
REMARK  8 active torsions:
REMARK  status: ('A' for Active; 'I' for Inactive)
REMARK    1  A    between atoms: C_2  and  O_11
REMARK    2  A    between atoms: C_3  and  O_7
REMARK    3  A    between atoms: C_4  and  O_16
REMARK    4  A    between atoms: C_5  and  C_21
REMARK    5  A    between atoms: C_6  and  O_9
REMARK    6  A    between atoms: O_11  and  S_12
REMARK    7  A    between atoms: O_16  and  S_17
REMARK    8  A    between atoms: C_21  and  O_22
REMARK                            x       y       z     vdW  Elec       q    Type
REMARK                         _______ _______ _______ _____ _____    ______ ____
ROOT
ATOM      1  O   UNL     1      35.810 -23.424 -16.331  0.00  0.00    -0.326 OA
ATOM      2  C   UNL     1      36.485 -24.593 -13.775  0.00  0.00    +0.211 C 
ATOM      3  C   UNL     1      35.339 -25.142 -14.635  0.00  0.00    +0.172 C 
ATOM      4  C   UNL     1      37.483 -23.782 -14.604  0.00  0.00    +0.235 C 
ATOM      5  C   UNL     1      34.769 -24.113 -15.627  0.00  0.00    +0.176 C 
ATOM      6  C   UNL     1      36.766 -22.768 -15.500  0.00  0.00    +0.265 C 
ENDROOT
BRANCH   3   7
ATOM      7  O   UNL     1      35.851 -26.250 -15.382  0.00  0.00    -0.379 OA
ATOM      8  H   UNL     1      35.915 -26.006 -16.318  0.00  0.00    +0.211 HD
ENDBRANCH   3   7
BRANCH   6   9
ATOM      9  O   UNL     1      37.743 -22.100 -16.295  0.00  0.00    -0.358 OA
ATOM     10  H   UNL     1      38.410 -21.697 -15.717  0.00  0.00    +0.213 HD
ENDBRANCH   6   9
BRANCH   2  11
ATOM     11  O   UNL     1      35.965 -23.755 -12.747  0.00  0.00    -0.198 OA
BRANCH  11  12
ATOM     12  S   UNL     1      36.553 -23.883 -11.232  0.00  0.00    +0.239 S 
ATOM     13  O   UNL     1      37.684 -25.052 -11.356  0.00  0.00    -0.116 OA
ATOM     14  O   UNL     1      37.240 -22.642 -10.929  0.00  0.00    -0.116 OA
ATOM     15  O   UNL     1      35.504 -24.370 -10.354  0.00  0.00    -0.022 OA
ENDBRANCH  11  12
ENDBRANCH   2  11
BRANCH   4  16
ATOM     16  O   UNL     1      38.263 -24.665 -15.410  0.00  0.00    -0.195 OA
BRANCH  16  17
ATOM     17  S   UNL     1      39.382 -25.628 -14.707  0.00  0.00    +0.239 S 
ATOM     18  O   UNL     1      40.490 -25.848 -15.884  0.00  0.00    -0.116 OA
ATOM     19  O   UNL     1      40.013 -24.860 -13.649  0.00  0.00    -0.022 OA
ATOM     20  O   UNL     1      38.779 -26.915 -14.415  0.00  0.00    -0.116 OA
ENDBRANCH  16  17
ENDBRANCH   4  16
BRANCH   5  21
ATOM     21  C   UNL     1      33.786 -23.129 -14.995  0.00  0.00    +0.169 C 
BRANCH  21  22
ATOM     22  O   UNL     1      33.329 -23.674 -13.772  0.00  0.00    -0.379 OA
ATOM     23  H   UNL     1      34.081 -24.034 -13.277  0.00  0.00    +0.211 HD
ENDBRANCH  21  22
ENDBRANCH   5  21
TORSDOF 8
ENDMDL
MODEL 2
REMARK VINA RESULT:      -7.8      1.903      4.523
REMARK  Name = 447561
REMARK  8 active torsions:
REMARK  status: ('A' for Active; 'I' for Inactive)
REMARK    1  A    between atoms: C_2  and  O_11
REMARK    2  A    between atoms: C_3  and  O_7
REMARK    3  A    between atoms: C_4  and  O_16
REMARK    4  A    between atoms: C_5  and  C_21
REMARK    5  A    between atoms: C_6  and  O_9
REMARK    6  A    between atoms: O_11  and  S_12
REMARK    7  A    between atoms: O_16  and  S_17
REMARK    8  A    between atoms: C_21  and  O_22
REMARK                            x       y       z     vdW  Elec       q    Type
REMARK                         _______ _______ _______ _____ _____    ______ ____
ROOT
ATOM      1  O   UNL     1      38.307 -25.958 -15.570  0.00  0.00    -0.326 OA
ATOM      2  C   UNL     1      36.692 -24.404 -13.745  0.00  0.00    +0.211 C 
ATOM      3  C   UNL     1      38.078 -23.929 -14.198  0.00  0.00    +0.172 C 
ATOM      4  C   UNL     1      36.095 -25.429 -14.711  0.00  0.00    +0.235 C 
ATOM      5  C   UNL     1      38.992 -25.071 -14.676  0.00  0.00    +0.176 C 
ATOM      6  C   UNL     1      37.107 -26.527 -15.050  0.00  0.00    +0.265 C 
ENDROOT
BRANCH   3   7
ATOM      7  O   UNL     1      37.890 -23.019 -15.286  0.00  0.00    -0.379 OA
ATOM      8  H   UNL     1      37.635 -22.150 -14.939  0.00  0.00    +0.211 HD
ENDBRANCH   3   7
BRANCH   6   9
ATOM      9  O   UNL     1      36.517 -27.405 -16.006  0.00  0.00    -0.358 OA
ATOM     10  H   UNL     1      37.063 -28.203 -16.093  0.00  0.00    +0.213 HD
ENDBRANCH   6   9
BRANCH   2  11
ATOM     11  O   UNL     1      36.777 -24.998 -12.453  0.00  0.00    -0.198 OA
BRANCH  11  12
ATOM     12  S   UNL     1      35.996 -24.309 -11.199  0.00  0.00    +0.239 S 
ATOM     13  O   UNL     1      34.758 -23.517 -11.906  0.00  0.00    -0.116 OA
ATOM     14  O   UNL     1      35.431 -25.381 -10.401  0.00  0.00    -0.116 OA
ATOM     15  O   UNL     1      36.864 -23.321 -10.583  0.00  0.00    -0.022 OA
ENDBRANCH  11  12
ENDBRANCH   2  11
BRANCH   4  16
ATOM     16  O   UNL     1      35.683 -24.772 -15.910  0.00  0.00    -0.195 OA
BRANCH  16  17
ATOM     17  S   UNL     1      34.500 -23.646 -15.851  0.00  0.00    +0.239 S 
ATOM     18  O   UNL     1      33.964 -23.574 -17.390  0.00  0.00    -0.116 OA
ATOM     19  O   UNL     1      33.426 -24.186 -15.038  0.00  0.00    -0.022 OA
ATOM     20  O   UNL     1      35.088 -22.361 -15.522  0.00  0.00    -0.116 OA
ENDBRANCH  16  17
ENDBRANCH   4  16
BRANCH   5  21
ATOM     21  C   UNL     1      39.659 -25.842 -13.538  0.00  0.00    +0.169 C 
BRANCH  21  22
ATOM     22  O   UNL     1      40.855 -26.421 -14.027  0.00  0.00    -0.379 OA
ATOM     23  H   UNL     1      40.733 -27.378 -14.130  0.00  0.00    +0.211 HD
ENDBRANCH  21  22
ENDBRANCH   5  21
TORSDOF 8
ENDMDL
MODEL 3
REMARK VINA RESULT:      -7.6      2.039      4.186
REMARK  Name = 447561
REMARK  8 active torsions:
REMARK  status: ('A' for Active; 'I' for Inactive)
REMARK    1  A    between atoms: C_2  and  O_11
REMARK    2  A    between atoms: C_3  and  O_7
REMARK    3  A    between atoms: C_4  and  O_16
REMARK    4  A    between atoms: C_5  and  C_21
REMARK    5  A    between atoms: C_6  and  O_9
REMARK    6  A    between atoms: O_11  and  S_12
REMARK    7  A    between atoms: O_16  and  S_17
REMARK    8  A    between atoms: C_21  and  O_22
REMARK                            x       y       z     vdW  Elec       q    Type
REMARK                         _______ _______ _______ _____ _____    ______ ____
ROOT
ATOM      1  O   UNL     1      37.528 -25.093 -11.326  0.00  0.00    -0.326 OA
ATOM      2  C   UNL     1      37.194 -23.261 -13.538  0.00  0.00    +0.211 C 
ATOM      3  C   UNL     1      37.249 -22.770 -12.085  0.00  0.00    +0.172 C 
ATOM      4  C   UNL     1      37.828 -24.645 -13.697  0.00  0.00    +0.235 C 
ATOM      5  C   UNL     1      36.868 -23.850 -11.057  0.00  0.00    +0.176 C 
ATOM      6  C   UNL     1      37.310 -25.618 -12.635  0.00  0.00    +0.265 C 
ENDROOT
BRANCH   3   7
ATOM      7  O   UNL     1      38.592 -22.352 -11.821  0.00  0.00    -0.379 OA
ATOM      8  H   UNL     1      38.602 -21.401 -11.631  0.00  0.00    +0.211 HD
ENDBRANCH   3   7
BRANCH   6   9
ATOM      9  O   UNL     1      37.992 -26.861 -12.792  0.00  0.00    -0.358 OA
ATOM     10  H   UNL     1      38.731 -26.749 -13.410  0.00  0.00    +0.213 HD
ENDBRANCH   6   9
BRANCH   2  11
ATOM     11  O   UNL     1      35.841 -23.332 -13.978  0.00  0.00    -0.198 OA
BRANCH  11  12
ATOM     12  S   UNL     1      35.521 -23.481 -15.570  0.00  0.00    +0.239 S 
ATOM     13  O   UNL     1      35.458 -25.094 -15.799  0.00  0.00    -0.116 OA
ATOM     14  O   UNL     1      34.188 -22.955 -15.793  0.00  0.00    -0.116 OA
ATOM     15  O   UNL     1      36.645 -22.966 -16.331  0.00  0.00    -0.022 OA
ENDBRANCH  11  12
ENDBRANCH   2  11
BRANCH   4  16
ATOM     16  O   UNL     1      39.248 -24.534 -13.593  0.00  0.00    -0.195 OA
BRANCH  16  17
ATOM     17  S   UNL     1      40.204 -25.393 -14.602  0.00  0.00    +0.239 S 
ATOM     18  O   UNL     1      40.896 -26.500 -13.624  0.00  0.00    -0.116 OA
ATOM     19  O   UNL     1      39.336 -26.105 -15.523  0.00  0.00    -0.022 OA
ATOM     20  O   UNL     1      41.252 -24.527 -15.109  0.00  0.00    -0.116 OA
ENDBRANCH  16  17
ENDBRANCH   4  16
BRANCH   5  21
ATOM     21  C   UNL     1      35.361 -24.047 -10.904  0.00  0.00    +0.169 C 
BRANCH  21  22
ATOM     22  O   UNL     1      35.132 -24.944  -9.833  0.00  0.00    -0.379 OA
ATOM     23  H   UNL     1      35.623 -25.766  -9.988  0.00  0.00    +0.211 HD
ENDBRANCH  21  22
ENDBRANCH   5  21
TORSDOF 8
ENDMDL
MODEL 4
REMARK VINA RESULT:      -7.6      2.039      5.098
REMARK  Name = 447561
REMARK  8 active torsions:
REMARK  status: ('A' for Active; 'I' for Inactive)
REMARK    1  A    between atoms: C_2  and  O_11
REMARK    2  A    between atoms: C_3  and  O_7
REMARK    3  A    between atoms: C_4  and  O_16
REMARK    4  A    between atoms: C_5  and  C_21
REMARK    5  A    between atoms: C_6  and  O_9
REMARK    6  A    between atoms: O_11  and  S_12
REMARK    7  A    between atoms: O_16  and  S_17
REMARK    8  A    between atoms: C_21  and  O_22
REMARK                            x       y       z     vdW  Elec       q    Type
REMARK                         _______ _______ _______ _____ _____    ______ ____
ROOT
ATOM      1  O   UNL     1      39.305 -25.246 -13.018  0.00  0.00    -0.326 OA
ATOM      2  C   UNL     1      36.805 -24.951 -14.440  0.00  0.00    +0.211 C 
ATOM      3  C   UNL     1      37.719 -26.164 -14.658  0.00  0.00    +0.172 C 
ATOM      4  C   UNL     1      37.085 -24.259 -13.104  0.00  0.00    +0.235 C 
ATOM      5  C   UNL     1      39.189 -25.901 -14.288  0.00  0.00    +0.176 C 
ATOM      6  C   UNL     1      38.584 -24.021 -12.905  0.00  0.00    +0.265 C 
ENDROOT
BRANCH   3   7
ATOM      7  O   UNL     1      37.231 -27.227 -13.834  0.00  0.00    -0.379 OA
ATOM      8  H   UNL     1      37.408 -27.020 -12.903  0.00  0.00    +0.211 HD
ENDBRANCH   3   7
BRANCH   6   9
ATOM      9  O   UNL     1      38.782 -23.443 -11.616  0.00  0.00    -0.358 OA
ATOM     10  H   UNL     1      39.149 -22.551 -11.714  0.00  0.00    +0.213 HD
ENDBRANCH   6   9
BRANCH   2  11
ATOM     11  O   UNL     1      36.994 -24.003 -15.487  0.00  0.00    -0.198 OA
BRANCH  11  12
ATOM     12  S   UNL     1      35.718 -23.149 -16.036  0.00  0.00    +0.239 S 
ATOM     13  O   UNL     1      34.633 -24.296 -16.442  0.00  0.00    -0.116 OA
ATOM     14  O   UNL     1      35.176 -22.413 -14.909  0.00  0.00    -0.116 OA
ATOM     15  O   UNL     1      36.102 -22.448 -17.248  0.00  0.00    -0.022 OA
ENDBRANCH  11  12
ENDBRANCH   2  11
BRANCH   4  16
ATOM     16  O   UNL     1      36.583 -25.064 -12.036  0.00  0.00    -0.195 OA
BRANCH  16  17
ATOM     17  S   UNL     1      35.586 -24.402 -10.923  0.00  0.00    +0.239 S 
ATOM     18  O   UNL     1      36.574 -23.451 -10.040  0.00  0.00    -0.116 OA
ATOM     19  O   UNL     1      34.660 -23.536 -11.629  0.00  0.00    -0.022 OA
ATOM     20  O   UNL     1      35.085 -25.452 -10.056  0.00  0.00    -0.116 OA
ENDBRANCH  16  17
ENDBRANCH   4  16
BRANCH   5  21
ATOM     21  C   UNL     1      39.970 -25.153 -15.367  0.00  0.00    +0.169 C 
BRANCH  21  22
ATOM     22  O   UNL     1      40.634 -26.102 -16.180  0.00  0.00    -0.379 OA
ATOM     23  H   UNL     1      40.771 -25.731 -17.065  0.00  0.00    +0.211 HD
ENDBRANCH  21  22
ENDBRANCH   5  21
TORSDOF 8
ENDMDL
MODEL 5
REMARK VINA RESULT:      -7.5      2.065      3.941
REMARK  Name = 447561
REMARK  8 active torsions:
REMARK  status: ('A' for Active; 'I' for Inactive)
REMARK    1  A    between atoms: C_2  and  O_11
REMARK    2  A    between atoms: C_3  and  O_7
REMARK    3  A    between atoms: C_4  and  O_16
REMARK    4  A    between atoms: C_5  and  C_21
REMARK    5  A    between atoms: C_6  and  O_9
REMARK    6  A    between atoms: O_11  and  S_12
REMARK    7  A    between atoms: O_16  and  S_17
REMARK    8  A    between atoms: C_21  and  O_22
REMARK                            x       y       z     vdW  Elec       q    Type
REMARK                         _______ _______ _______ _____ _____    ______ ____
ROOT
ATOM      1  O   UNL     1      36.478 -25.841 -12.667  0.00  0.00    -0.326 OA
ATOM      2  C   UNL     1      37.797 -24.266 -14.701  0.00  0.00    +0.211 C 
ATOM      3  C   UNL     1      37.370 -23.656 -13.359  0.00  0.00    +0.172 C 
ATOM      4  C   UNL     1      37.923 -25.789 -14.621  0.00  0.00    +0.235 C 
ATOM      5  C   UNL     1      36.233 -24.429 -12.667  0.00  0.00    +0.176 C 
ATOM      6  C   UNL     1      36.694 -26.414 -13.956  0.00  0.00    +0.265 C 
ENDROOT
BRANCH   3   7
ATOM      7  O   UNL     1      38.512 -23.667 -12.496  0.00  0.00    -0.379 OA
ATOM      8  H   UNL     1      38.453 -22.925 -11.874  0.00  0.00    +0.211 HD
ENDBRANCH   3   7
BRANCH   6   9
ATOM      9  O   UNL     1      36.906 -27.819 -13.846  0.00  0.00    -0.358 OA
ATOM     10  H   UNL     1      37.851 -27.994 -13.707  0.00  0.00    +0.213 HD
ENDBRANCH   6   9
BRANCH   2  11
ATOM     11  O   UNL     1      36.843 -23.944 -15.709  0.00  0.00    -0.198 OA
BRANCH  11  12
ATOM     12  S   UNL     1      36.635 -22.389 -16.151  0.00  0.00    +0.239 S 
ATOM     13  O   UNL     1      36.301 -22.484 -17.744  0.00  0.00    -0.116 OA
ATOM     14  O   UNL     1      35.441 -21.907 -15.482  0.00  0.00    -0.116 OA
ATOM     15  O   UNL     1      37.892 -21.679 -16.000  0.00  0.00    -0.022 OA
ENDBRANCH  11  12
ENDBRANCH   2  11
BRANCH   4  16
ATOM     16  O   UNL     1      39.095 -26.132 -13.880  0.00  0.00    -0.195 OA
BRANCH  16  17
ATOM     17  S   UNL     1      40.565 -25.997 -14.581  0.00  0.00    +0.239 S 
ATOM     18  O   UNL     1      41.080 -24.523 -14.110  0.00  0.00    -0.116 OA
ATOM     19  O   UNL     1      41.434 -26.982 -13.963  0.00  0.00    -0.022 OA
ATOM     20  O   UNL     1      40.399 -25.973 -16.023  0.00  0.00    -0.116 OA
ENDBRANCH  16  17
ENDBRANCH   4  16
BRANCH   5  21
ATOM     21  C   UNL     1      34.846 -24.109 -13.222  0.00  0.00    +0.169 C 
BRANCH  21  22
ATOM     22  O   UNL     1      33.887 -24.845 -12.488  0.00  0.00    -0.379 OA
ATOM     23  H   UNL     1      34.326 -25.313 -11.760  0.00  0.00    +0.211 HD
ENDBRANCH  21  22
ENDBRANCH   5  21
TORSDOF 8
ENDMDL
MODEL 6
REMARK VINA RESULT:      -7.2      1.516      4.135
REMARK  Name = 447561
REMARK  8 active torsions:
REMARK  status: ('A' for Active; 'I' for Inactive)
REMARK    1  A    between atoms: C_2  and  O_11
REMARK    2  A    between atoms: C_3  and  O_7
REMARK    3  A    between atoms: C_4  and  O_16
REMARK    4  A    between atoms: C_5  and  C_21
REMARK    5  A    between atoms: C_6  and  O_9
REMARK    6  A    between atoms: O_11  and  S_12
REMARK    7  A    between atoms: O_16  and  S_17
REMARK    8  A    between atoms: C_21  and  O_22
REMARK                            x       y       z     vdW  Elec       q    Type
REMARK                         _______ _______ _______ _____ _____    ______ ____
ROOT
ATOM      1  O   UNL     1      34.427 -22.529 -14.665  0.00  0.00    -0.326 OA
ATOM      2  C   UNL     1      36.631 -24.395 -14.806  0.00  0.00    +0.211 C 
ATOM      3  C   UNL     1      36.532 -23.190 -15.751  0.00  0.00    +0.172 C 
ATOM      4  C   UNL     1      35.791 -24.199 -13.542  0.00  0.00    +0.235 C 
ATOM      5  C   UNL     1      35.098 -22.661 -15.925  0.00  0.00    +0.176 C 
ATOM      6  C   UNL     1      34.377 -23.720 -13.882  0.00  0.00    +0.265 C 
ENDROOT
BRANCH   3   7
ATOM      7  O   UNL     1      37.335 -22.142 -15.199  0.00  0.00    -0.379 OA
ATOM      8  H   UNL     1      37.333 -21.382 -15.803  0.00  0.00    +0.211 HD
ENDBRANCH   3   7
BRANCH   6   9
ATOM      9  O   UNL     1      33.675 -23.487 -12.664  0.00  0.00    -0.358 OA
ATOM     10  H   UNL     1      33.657 -24.303 -12.139  0.00  0.00    +0.213 HD
ENDBRANCH   6   9
BRANCH   2  11
ATOM     11  O   UNL     1      36.179 -25.573 -15.469  0.00  0.00    -0.198 OA
BRANCH  11  12
ATOM     12  S   UNL     1      37.047 -26.947 -15.344  0.00  0.00    +0.239 S 
ATOM     13  O   UNL     1      38.591 -26.423 -15.292  0.00  0.00    -0.116 OA
ATOM     14  O   UNL     1      36.741 -27.535 -14.054  0.00  0.00    -0.116 OA
ATOM     15  O   UNL     1      36.881 -27.726 -16.558  0.00  0.00    -0.022 OA
ENDBRANCH  11  12
ENDBRANCH   2  11
BRANCH   4  16
ATOM     16  O   UNL     1      36.427 -23.244 -12.691  0.00  0.00    -0.195 OA
BRANCH  16  17
ATOM     17  S   UNL     1      37.415 -23.756 -11.495  0.00  0.00    +0.239 S 
ATOM     18  O   UNL     1      37.700 -25.317 -11.875  0.00  0.00    -0.116 OA
ATOM     19  O   UNL     1      38.670 -23.038 -11.629  0.00  0.00    -0.022 OA
ATOM     20  O   UNL     1      36.689 -23.728 -10.239  0.00  0.00    -0.116 OA
ENDBRANCH  16  17
ENDBRANCH   4  16
BRANCH   5  21
ATOM     21  C   UNL     1      34.260 -23.469 -16.914  0.00  0.00    +0.169 C 
BRANCH  21  22
ATOM     22  O   UNL     1      34.444 -22.926 -18.208  0.00  0.00    -0.379 OA
ATOM     23  H   UNL     1      34.569 -23.646 -18.846  0.00  0.00    +0.211 HD
ENDBRANCH  21  22
ENDBRANCH   5  21
TORSDOF 8
ENDMDL
MODEL 7
REMARK VINA RESULT:      -6.8      2.011      4.704
REMARK  Name = 447561
REMARK  8 active torsions:
REMARK  status: ('A' for Active; 'I' for Inactive)
REMARK    1  A    between atoms: C_2  and  O_11
REMARK    2  A    between atoms: C_3  and  O_7
REMARK    3  A    between atoms: C_4  and  O_16
REMARK    4  A    between atoms: C_5  and  C_21
REMARK    5  A    between atoms: C_6  and  O_9
REMARK    6  A    between atoms: O_11  and  S_12
REMARK    7  A    between atoms: O_16  and  S_17
REMARK    8  A    between atoms: C_21  and  O_22
REMARK                            x       y       z     vdW  Elec       q    Type
REMARK                         _______ _______ _______ _____ _____    ______ ____
ROOT
ATOM      1  O   UNL     1      35.560 -24.443 -13.181  0.00  0.00    -0.326 OA
ATOM      2  C   UNL     1      37.531 -25.114 -15.187  0.00  0.00    +0.211 C 
ATOM      3  C   UNL     1      37.078 -26.130 -14.129  0.00  0.00    +0.172 C 
ATOM      4  C   UNL     1      36.508 -23.991 -15.373  0.00  0.00    +0.235 C 
ATOM      5  C   UNL     1      36.498 -25.478 -12.861  0.00  0.00    +0.176 C 
ATOM      6  C   UNL     1      36.067 -23.412 -14.026  0.00  0.00    +0.265 C 
ENDROOT
BRANCH   3   7
ATOM      7  O   UNL     1      36.063 -26.947 -14.719  0.00  0.00    -0.379 OA
ATOM      8  H   UNL     1      35.196 -26.686 -14.371  0.00  0.00    +0.211 HD
ENDBRANCH   3   7
BRANCH   6   9
ATOM      9  O   UNL     1      35.065 -22.426 -14.265  0.00  0.00    -0.358 OA
ATOM     10  H   UNL     1      34.244 -22.861 -14.545  0.00  0.00    +0.213 HD
ENDBRANCH   6   9
BRANCH   2  11
ATOM     11  O   UNL     1      38.774 -24.534 -14.806  0.00  0.00    -0.198 OA
BRANCH  11  12
ATOM     12  S   UNL     1      40.131 -25.436 -14.859  0.00  0.00    +0.239 S 
ATOM     13  O   UNL     1      41.323 -24.353 -14.600  0.00  0.00    -0.116 OA
ATOM     14  O   UNL     1      40.099 -26.331 -13.717  0.00  0.00    -0.116 OA
ATOM     15  O   UNL     1      40.296 -25.969 -16.199  0.00  0.00    -0.022 OA
ENDBRANCH  11  12
ENDBRANCH   2  11
BRANCH   4  16
ATOM     16  O   UNL     1      35.370 -24.494 -16.073  0.00  0.00    -0.195 OA
BRANCH  16  17
ATOM     17  S   UNL     1      34.416 -23.466 -16.912  0.00  0.00    +0.239 S 
ATOM     18  O   UNL     1      33.923 -24.355 -18.188  0.00  0.00    -0.116 OA
ATOM     19  O   UNL     1      33.249 -23.189 -16.094  0.00  0.00    -0.022 OA
ATOM     20  O   UNL     1      35.228 -22.374 -17.416  0.00  0.00    -0.116 OA
ENDBRANCH  16  17
ENDBRANCH   4  16
BRANCH   5  21
ATOM     21  C   UNL     1      37.562 -24.977 -11.885  0.00  0.00    +0.169 C 
BRANCH  21  22
ATOM     22  O   UNL     1      36.914 -24.313 -10.816  0.00  0.00    -0.379 OA
ATOM     23  H   UNL     1      37.245 -24.659  -9.972  0.00  0.00    +0.211 HD
ENDBRANCH  21  22
ENDBRANCH   5  21
TORSDOF 8
ENDMDL
MODEL 8
REMARK VINA RESULT:      -6.8      2.014      5.248
REMARK  Name = 447561
REMARK  8 active torsions:
REMARK  status: ('A' for Active; 'I' for Inactive)
REMARK    1  A    between atoms: C_2  and  O_11
REMARK    2  A    between atoms: C_3  and  O_7
REMARK    3  A    between atoms: C_4  and  O_16
REMARK    4  A    between atoms: C_5  and  C_21
REMARK    5  A    between atoms: C_6  and  O_9
REMARK    6  A    between atoms: O_11  and  S_12
REMARK    7  A    between atoms: O_16  and  S_17
REMARK    8  A    between atoms: C_21  and  O_22
REMARK                            x       y       z     vdW  Elec       q    Type
REMARK                         _______ _______ _______ _____ _____    ______ ____
ROOT
ATOM      1  O   UNL     1      35.346 -22.077 -15.701  0.00  0.00    -0.326 OA
ATOM      2  C   UNL     1      35.622 -24.719 -14.559  0.00  0.00    +0.211 C 
ATOM      3  C   UNL     1      36.509 -23.550 -14.112  0.00  0.00    +0.172 C 
ATOM      4  C   UNL     1      34.331 -24.233 -15.221  0.00  0.00    +0.235 C 
ATOM      5  C   UNL     1      36.626 -22.430 -15.161  0.00  0.00    +0.176 C 
ATOM      6  C   UNL     1      34.616 -23.160 -16.275  0.00  0.00    +0.265 C 
ENDROOT
BRANCH   3   7
ATOM      7  O   UNL     1      35.931 -22.996 -12.926  0.00  0.00    -0.379 OA
ATOM      8  H   UNL     1      35.252 -23.600 -12.586  0.00  0.00    +0.211 HD
ENDBRANCH   3   7
BRANCH   6   9
ATOM      9  O   UNL     1      33.372 -22.700 -16.799  0.00  0.00    -0.358 OA
ATOM     10  H   UNL     1      33.387 -22.761 -17.768  0.00  0.00    +0.213 HD
ENDBRANCH   6   9
BRANCH   2  11
ATOM     11  O   UNL     1      36.325 -25.538 -15.488  0.00  0.00    -0.198 OA
BRANCH  11  12
ATOM     12  S   UNL     1      37.233 -26.776 -14.940  0.00  0.00    +0.239 S 
ATOM     13  O   UNL     1      38.760 -26.216 -15.062  0.00  0.00    -0.116 OA
ATOM     14  O   UNL     1      36.938 -26.936 -13.528  0.00  0.00    -0.116 OA
ATOM     15  O   UNL     1      37.097 -27.902 -15.846  0.00  0.00    -0.022 OA
ENDBRANCH  11  12
ENDBRANCH   2  11
BRANCH   4  16
ATOM     16  O   UNL     1      33.453 -23.705 -14.226  0.00  0.00    -0.195 OA
BRANCH  16  17
ATOM     17  S   UNL     1      31.888 -24.174 -14.194  0.00  0.00    +0.239 S 
ATOM     18  O   UNL     1      31.306 -23.473 -12.841  0.00  0.00    -0.116 OA
ATOM     19  O   UNL     1      31.225 -23.556 -15.327  0.00  0.00    -0.022 OA
ATOM     20  O   UNL     1      31.832 -25.613 -14.011  0.00  0.00    -0.116 OA
ENDBRANCH  16  17
ENDBRANCH   4  16
BRANCH   5  21
ATOM     21  C   UNL     1      37.630 -22.731 -16.272  0.00  0.00    +0.169 C 
BRANCH  21  22
ATOM     22  O   UNL     1      38.666 -23.533 -15.737  0.00  0.00    -0.379 OA
ATOM     23  H   UNL     1      38.473 -23.732 -14.807  0.00  0.00    +0.211 HD
ENDBRANCH  21  22
ENDBRANCH   5  21
TORSDOF 8
ENDMDL
MODEL 9
REMARK VINA RESULT:      -6.8      2.031      5.403
REMARK  Name = 447561
REMARK  8 active torsions:
REMARK  status: ('A' for Active; 'I' for Inactive)
REMARK    1  A    between atoms: C_2  and  O_11
REMARK    2  A    between atoms: C_3  and  O_7
REMARK    3  A    between atoms: C_4  and  O_16
REMARK    4  A    between atoms: C_5  and  C_21
REMARK    5  A    between atoms: C_6  and  O_9
REMARK    6  A    between atoms: O_11  and  S_12
REMARK    7  A    between atoms: O_16  and  S_17
REMARK    8  A    between atoms: C_21  and  O_22
REMARK                            x       y       z     vdW  Elec       q    Type
REMARK                         _______ _______ _______ _____ _____    ______ ____
ROOT
ATOM      1  O   UNL     1      36.443 -25.810 -11.962  0.00  0.00    -0.326 OA
ATOM      2  C   UNL     1      35.967 -24.179 -14.302  0.00  0.00    +0.211 C 
ATOM      3  C   UNL     1      36.632 -25.558 -14.401  0.00  0.00    +0.172 C 
ATOM      4  C   UNL     1      35.166 -24.024 -13.007  0.00  0.00    +0.235 C 
ATOM      5  C   UNL     1      37.300 -26.015 -13.092  0.00  0.00    +0.176 C 
ATOM      6  C   UNL     1      35.983 -24.470 -11.792  0.00  0.00    +0.265 C 
ENDROOT
BRANCH   3   7
ATOM      7  O   UNL     1      35.614 -26.505 -14.740  0.00  0.00    -0.379 OA
ATOM      8  H   UNL     1      34.813 -26.317 -14.226  0.00  0.00    +0.211 HD
ENDBRANCH   3   7
BRANCH   6   9
ATOM      9  O   UNL     1      35.158 -24.371 -10.633  0.00  0.00    -0.358 OA
ATOM     10  H   UNL     1      35.173 -23.458 -10.302  0.00  0.00    +0.213 HD
ENDBRANCH   6   9
BRANCH   2  11
ATOM     11  O   UNL     1      36.958 -23.156 -14.344  0.00  0.00    -0.198 OA
BRANCH  11  12
ATOM     12  S   UNL     1      37.568 -22.689 -15.782  0.00  0.00    +0.239 S 
ATOM     13  O   UNL     1      36.409 -23.113 -16.848  0.00  0.00    -0.116 OA
ATOM     14  O   UNL     1      37.641 -21.240 -15.769  0.00  0.00    -0.116 OA
ATOM     15  O   UNL     1      38.752 -23.476 -16.074  0.00  0.00    -0.022 OA
ENDBRANCH  11  12
ENDBRANCH   2  11
BRANCH   4  16
ATOM     16  O   UNL     1      33.970 -24.800 -13.091  0.00  0.00    -0.195 OA
BRANCH  16  17
ATOM     17  S   UNL     1      32.645 -24.172 -13.813  0.00  0.00    +0.239 S 
ATOM     18  O   UNL     1      31.626 -25.442 -13.914  0.00  0.00    -0.116 OA
ATOM     19  O   UNL     1      32.061 -23.214 -12.892  0.00  0.00    -0.022 OA
ATOM     20  O   UNL     1      32.991 -23.769 -15.163  0.00  0.00    -0.116 OA
ENDBRANCH  16  17
ENDBRANCH   4  16
BRANCH   5  21
ATOM     21  C   UNL     1      38.678 -25.399 -12.859  0.00  0.00    +0.169 C 
BRANCH  21  22
ATOM     22  O   UNL     1      39.339 -25.289 -14.105  0.00  0.00    -0.379 OA
ATOM     23  H   UNL     1      38.702 -25.434 -14.823  0.00  0.00    +0.211 HD
ENDBRANCH  21  22
ENDBRANCH   5  21
TORSDOF 8
ENDMDL
