MODEL 1
REMARK VINA RESULT:      -9.5      0.000      0.000
REMARK  Name = 11390
REMARK  2 active torsions:
REMARK  status: ('A' for Active; 'I' for Inactive)
REMARK    1  A    between atoms: C_3  and  S_11
REMARK    2  A    between atoms: C_4  and  S_15
REMARK                            x       y       z     vdW  Elec       q    Type
REMARK                         _______ _______ _______ _____ _____    ______ ____
ROOT
ATOM      1  C   UNL     1      34.669 -23.383 -15.311  0.00  0.00    +0.001 C 
ATOM      2  C   UNL     1      35.990 -22.935 -15.073  0.00  0.00    +0.001 C 
ATOM      3  C   UNL     1      34.830 -22.602 -17.610  0.00  0.00    +0.112 C 
ATOM      4  C   UNL     1      35.827 -23.716 -12.774  0.00  0.00    +0.112 C 
ATOM      5  C   UNL     1      34.104 -23.209 -16.586  0.00  0.00    +0.019 C 
ATOM      6  C   UNL     1      36.555 -23.109 -13.799  0.00  0.00    +0.019 C 
ATOM      7  C   UNL     1      36.708 -22.326 -16.116  0.00  0.00    +0.001 C 
ATOM      8  C   UNL     1      33.951 -23.992 -14.268  0.00  0.00    +0.001 C 
ATOM      9  C   UNL     1      36.130 -22.162 -17.375  0.00  0.00    +0.019 C 
ATOM     10  C   UNL     1      34.528 -24.157 -13.009  0.00  0.00    +0.019 C 
ENDROOT
BRANCH   3  11
ATOM     11  S   UNL     1      34.110 -22.395 -19.187  0.00  0.00    +0.042 S 
ATOM     12  O   UNL     1      32.590 -21.870 -18.898  0.00  0.00    -0.065 OA
ATOM     13  O   UNL     1      34.811 -21.314 -19.863  0.00  0.00    -0.065 OA
ATOM     14  O   UNL     1      34.025 -23.717 -19.791  0.00  0.00    -0.065 OA
ENDBRANCH   3  11
BRANCH   4  15
ATOM     15  S   UNL     1      36.548 -23.924 -11.197  0.00  0.00    +0.042 S 
ATOM     16  O   UNL     1      37.705 -25.060 -11.401  0.00  0.00    -0.065 OA
ATOM     17  O   UNL     1      37.226 -22.684 -10.846  0.00  0.00    -0.065 OA
ATOM     18  O   UNL     1      35.519 -24.477 -10.331  0.00  0.00    -0.065 OA
ENDBRANCH   4  15
TORSDOF 2
ENDMDL
MODEL 2
REMARK VINA RESULT:      -9.5      0.021      6.886
REMARK  Name = 11390
REMARK  2 active torsions:
REMARK  status: ('A' for Active; 'I' for Inactive)
REMARK    1  A    between atoms: C_3  and  S_11
REMARK    2  A    between atoms: C_4  and  S_15
REMARK                            x       y       z     vdW  Elec       q    Type
REMARK                         _______ _______ _______ _____ _____    ______ ____
ROOT
ATOM      1  C   UNL     1      35.992 -22.940 -15.075  0.00  0.00    +0.001 C 
ATOM      2  C   UNL     1      34.666 -23.376 -15.306  0.00  0.00    +0.001 C 
ATOM      3  C   UNL     1      35.835 -23.715 -12.774  0.00  0.00    +0.112 C 
ATOM      4  C   UNL     1      34.825 -22.599 -17.607  0.00  0.00    +0.112 C 
ATOM      5  C   UNL     1      36.562 -23.117 -13.803  0.00  0.00    +0.019 C 
ATOM      6  C   UNL     1      34.097 -23.199 -16.578  0.00  0.00    +0.019 C 
ATOM      7  C   UNL     1      33.948 -23.977 -14.259  0.00  0.00    +0.001 C 
ATOM      8  C   UNL     1      36.711 -22.339 -16.122  0.00  0.00    +0.001 C 
ATOM      9  C   UNL     1      34.530 -24.144 -13.002  0.00  0.00    +0.019 C 
ATOM     10  C   UNL     1      36.130 -22.171 -17.379  0.00  0.00    +0.019 C 
ENDROOT
BRANCH   3  11
ATOM     11  S   UNL     1      36.561 -23.926 -11.200  0.00  0.00    +0.042 S 
ATOM     12  O   UNL     1      37.734 -25.043 -11.415  0.00  0.00    -0.065 OA
ATOM     13  O   UNL     1      37.221 -22.680 -10.839  0.00  0.00    -0.065 OA
ATOM     14  O   UNL     1      35.540 -24.503 -10.337  0.00  0.00    -0.065 OA
ENDBRANCH   3  11
BRANCH   4  15
ATOM     15  S   UNL     1      34.100 -22.389 -19.181  0.00  0.00    +0.042 S 
ATOM     16  O   UNL     1      32.570 -21.894 -18.885  0.00  0.00    -0.065 OA
ATOM     17  O   UNL     1      34.781 -21.288 -19.847  0.00  0.00    -0.065 OA
ATOM     18  O   UNL     1      34.038 -23.704 -19.797  0.00  0.00    -0.065 OA
ENDBRANCH   4  15
TORSDOF 2
ENDMDL
MODEL 3
REMARK VINA RESULT:      -9.3      3.576      4.790
REMARK  Name = 11390
REMARK  2 active torsions:
REMARK  status: ('A' for Active; 'I' for Inactive)
REMARK    1  A    between atoms: C_3  and  S_11
REMARK    2  A    between atoms: C_4  and  S_15
REMARK                            x       y       z     vdW  Elec       q    Type
REMARK                         _______ _______ _______ _____ _____    ______ ____
ROOT
ATOM      1  C   UNL     1      32.021 -23.455 -15.392  0.00  0.00    +0.001 C 
ATOM      2  C   UNL     1      31.904 -24.211 -14.202  0.00  0.00    +0.001 C 
ATOM      3  C   UNL     1      29.613 -23.601 -15.709  0.00  0.00    +0.112 C 
ATOM      4  C   UNL     1      34.312 -24.065 -13.888  0.00  0.00    +0.112 C 
ATOM      5  C   UNL     1      30.865 -23.158 -16.134  0.00  0.00    +0.019 C 
ATOM      6  C   UNL     1      33.059 -24.508 -13.461  0.00  0.00    +0.019 C 
ATOM      7  C   UNL     1      30.635 -24.650 -13.788  0.00  0.00    +0.001 C 
ATOM      8  C   UNL     1      33.289 -23.016 -15.807  0.00  0.00    +0.001 C 
ATOM      9  C   UNL     1      29.498 -24.346 -14.538  0.00  0.00    +0.019 C 
ATOM     10  C   UNL     1      34.427 -23.320 -15.058  0.00  0.00    +0.019 C 
ENDROOT
BRANCH   3  11
ATOM     11  S   UNL     1      28.188 -23.222 -16.645  0.00  0.00    +0.042 S 
ATOM     12  O   UNL     1      27.004 -22.982 -15.544  0.00  0.00    -0.065 OA
ATOM     13  O   UNL     1      28.414 -21.949 -17.311  0.00  0.00    -0.065 OA
ATOM     14  O   UNL     1      27.857 -24.414 -17.413  0.00  0.00    -0.065 OA
ENDBRANCH   3  11
BRANCH   4  15
ATOM     15  S   UNL     1      35.737 -24.443 -12.951  0.00  0.00    +0.042 S 
ATOM     16  O   UNL     1      35.175 -24.960 -11.506  0.00  0.00    -0.065 OA
ATOM     17  O   UNL     1      36.400 -25.577 -13.580  0.00  0.00    -0.065 OA
ATOM     18  O   UNL     1      36.447 -23.193 -12.738  0.00  0.00    -0.065 OA
ENDBRANCH   4  15
TORSDOF 2
ENDMDL
MODEL 4
REMARK VINA RESULT:      -9.1      0.666      6.672
REMARK  Name = 11390
REMARK  2 active torsions:
REMARK  status: ('A' for Active; 'I' for Inactive)
REMARK    1  A    between atoms: C_3  and  S_11
REMARK    2  A    between atoms: C_4  and  S_15
REMARK                            x       y       z     vdW  Elec       q    Type
REMARK                         _______ _______ _______ _____ _____    ______ ____
ROOT
ATOM      1  C   UNL     1      34.686 -23.489 -14.775  0.00  0.00    +0.001 C 
ATOM      2  C   UNL     1      35.746 -23.070 -15.614  0.00  0.00    +0.001 C 
ATOM      3  C   UNL     1      36.248 -23.688 -12.920  0.00  0.00    +0.112 C 
ATOM      4  C   UNL     1      34.183 -22.873 -17.469  0.00  0.00    +0.112 C 
ATOM      5  C   UNL     1      34.954 -23.794 -13.430  0.00  0.00    +0.019 C 
ATOM      6  C   UNL     1      35.478 -22.765 -16.959  0.00  0.00    +0.019 C 
ATOM      7  C   UNL     1      37.043 -22.969 -15.084  0.00  0.00    +0.001 C 
ATOM      8  C   UNL     1      33.389 -23.591 -15.305  0.00  0.00    +0.001 C 
ATOM      9  C   UNL     1      37.290 -23.276 -13.746  0.00  0.00    +0.019 C 
ATOM     10  C   UNL     1      33.140 -23.284 -16.643  0.00  0.00    +0.019 C 
ENDROOT
BRANCH   3  11
ATOM     11  S   UNL     1      36.560 -24.071 -11.246  0.00  0.00    +0.042 S 
ATOM     12  O   UNL     1      37.898 -25.010 -11.263  0.00  0.00    -0.065 OA
ATOM     13  O   UNL     1      36.916 -22.838 -10.561  0.00  0.00    -0.065 OA
ATOM     14  O   UNL     1      35.445 -24.883 -10.782  0.00  0.00    -0.065 OA
ENDBRANCH   3  11
BRANCH   4  15
ATOM     15  S   UNL     1      33.870 -22.489 -19.143  0.00  0.00    +0.042 S 
ATOM     16  O   UNL     1      35.105 -21.519 -19.599  0.00  0.00    -0.065 OA
ATOM     17  O   UNL     1      33.987 -23.718 -19.916  0.00  0.00    -0.065 OA
ATOM     18  O   UNL     1      32.646 -21.705 -19.176  0.00  0.00    -0.065 OA
ENDBRANCH   4  15
TORSDOF 2
ENDMDL
MODEL 5
REMARK VINA RESULT:      -9.0      3.890      5.111
REMARK  Name = 11390
REMARK  2 active torsions:
REMARK  status: ('A' for Active; 'I' for Inactive)
REMARK    1  A    between atoms: C_3  and  S_11
REMARK    2  A    between atoms: C_4  and  S_15
REMARK                            x       y       z     vdW  Elec       q    Type
REMARK                         _______ _______ _______ _____ _____    ______ ____
ROOT
ATOM      1  C   UNL     1      32.058 -23.159 -16.411  0.00  0.00    +0.001 C 
ATOM      2  C   UNL     1      32.341 -23.365 -15.040  0.00  0.00    +0.001 C 
ATOM      3  C   UNL     1      29.677 -23.184 -15.910  0.00  0.00    +0.112 C 
ATOM      4  C   UNL     1      34.723 -23.340 -15.542  0.00  0.00    +0.112 C 
ATOM      5  C   UNL     1      30.719 -23.071 -16.829  0.00  0.00    +0.019 C 
ATOM      6  C   UNL     1      33.679 -23.453 -14.621  0.00  0.00    +0.019 C 
ATOM      7  C   UNL     1      31.279 -23.476 -14.127  0.00  0.00    +0.001 C 
ATOM      8  C   UNL     1      33.120 -23.047 -17.324  0.00  0.00    +0.001 C 
ATOM      9  C   UNL     1      29.956 -23.386 -14.562  0.00  0.00    +0.019 C 
ATOM     10  C   UNL     1      34.443 -23.137 -16.890  0.00  0.00    +0.019 C 
ENDROOT
BRANCH   3  11
ATOM     11  S   UNL     1      28.020 -23.072 -16.451  0.00  0.00    +0.042 S 
ATOM     12  O   UNL     1      27.954 -21.708 -17.349  0.00  0.00    -0.065 OA
ATOM     13  O   UNL     1      27.765 -24.186 -17.351  0.00  0.00    -0.065 OA
ATOM     14  O   UNL     1      27.200 -22.873 -15.265  0.00  0.00    -0.065 OA
ENDBRANCH   3  11
BRANCH   4  15
ATOM     15  S   UNL     1      36.379 -23.452 -15.002  0.00  0.00    +0.042 S 
ATOM     16  O   UNL     1      37.168 -22.253 -15.786  0.00  0.00    -0.065 OA
ATOM     17  O   UNL     1      36.412 -23.124 -13.583  0.00  0.00    -0.065 OA
ATOM     18  O   UNL     1      36.897 -24.723 -15.482  0.00  0.00    -0.065 OA
ENDBRANCH   4  15
TORSDOF 2
ENDMDL
MODEL 6
REMARK VINA RESULT:      -9.0      0.669      2.030
REMARK  Name = 11390
REMARK  2 active torsions:
REMARK  status: ('A' for Active; 'I' for Inactive)
REMARK    1  A    between atoms: C_3  and  S_11
REMARK    2  A    between atoms: C_4  and  S_15
REMARK                            x       y       z     vdW  Elec       q    Type
REMARK                         _______ _______ _______ _____ _____    ______ ____
ROOT
ATOM      1  C   UNL     1      35.738 -23.080 -15.624  0.00  0.00    +0.001 C 
ATOM      2  C   UNL     1      34.675 -23.496 -14.787  0.00  0.00    +0.001 C 
ATOM      3  C   UNL     1      34.179 -22.867 -17.480  0.00  0.00    +0.112 C 
ATOM      4  C   UNL     1      36.236 -23.709 -12.932  0.00  0.00    +0.112 C 
ATOM      5  C   UNL     1      35.472 -22.770 -16.968  0.00  0.00    +0.019 C 
ATOM      6  C   UNL     1      34.940 -23.806 -13.443  0.00  0.00    +0.019 C 
ATOM      7  C   UNL     1      33.378 -23.589 -15.318  0.00  0.00    +0.001 C 
ATOM      8  C   UNL     1      37.035 -22.987 -15.093  0.00  0.00    +0.001 C 
ATOM      9  C   UNL     1      33.134 -23.276 -16.656  0.00  0.00    +0.019 C 
ATOM     10  C   UNL     1      37.281 -23.299 -13.755  0.00  0.00    +0.019 C 
ENDROOT
BRANCH   3  11
ATOM     11  S   UNL     1      33.870 -22.477 -19.153  0.00  0.00    +0.042 S 
ATOM     12  O   UNL     1      35.104 -21.504 -19.601  0.00  0.00    -0.065 OA
ATOM     13  O   UNL     1      33.990 -23.701 -19.930  0.00  0.00    -0.065 OA
ATOM     14  O   UNL     1      32.643 -21.694 -19.186  0.00  0.00    -0.065 OA
ENDBRANCH   3  11
BRANCH   4  15
ATOM     15  S   UNL     1      36.545 -24.099 -11.258  0.00  0.00    +0.042 S 
ATOM     16  O   UNL     1      37.887 -25.032 -11.276  0.00  0.00    -0.065 OA
ATOM     17  O   UNL     1      36.894 -22.865 -10.567  0.00  0.00    -0.065 OA
ATOM     18  O   UNL     1      35.432 -24.916 -10.801  0.00  0.00    -0.065 OA
ENDBRANCH   4  15
TORSDOF 2
ENDMDL
MODEL 7
REMARK VINA RESULT:      -8.9      3.657      6.831
REMARK  Name = 11390
REMARK  2 active torsions:
REMARK  status: ('A' for Active; 'I' for Inactive)
REMARK    1  A    between atoms: C_3  and  S_11
REMARK    2  A    between atoms: C_4  and  S_15
REMARK                            x       y       z     vdW  Elec       q    Type
REMARK                         _______ _______ _______ _____ _____    ______ ____
ROOT
ATOM      1  C   UNL     1      32.116 -24.315 -14.486  0.00  0.00    +0.001 C 
ATOM      2  C   UNL     1      32.091 -23.570 -15.688  0.00  0.00    +0.001 C 
ATOM      3  C   UNL     1      34.547 -24.224 -14.494  0.00  0.00    +0.112 C 
ATOM      4  C   UNL     1      29.659 -23.663 -15.679  0.00  0.00    +0.112 C 
ATOM      5  C   UNL     1      33.353 -24.634 -13.902  0.00  0.00    +0.019 C 
ATOM      6  C   UNL     1      30.853 -23.251 -16.272  0.00  0.00    +0.019 C 
ATOM      7  C   UNL     1      33.302 -23.165 -16.272  0.00  0.00    +0.001 C 
ATOM      8  C   UNL     1      30.904 -24.720 -13.902  0.00  0.00    +0.001 C 
ATOM      9  C   UNL     1      34.522 -23.491 -15.677  0.00  0.00    +0.019 C 
ATOM     10  C   UNL     1      29.684 -24.395 -14.496  0.00  0.00    +0.019 C 
ENDROOT
BRANCH   3  11
ATOM     11  S   UNL     1      36.075 -24.631 -13.752  0.00  0.00    +0.042 S 
ATOM     12  O   UNL     1      36.961 -23.259 -13.817  0.00  0.00    -0.065 OA
ATOM     13  O   UNL     1      35.831 -24.912 -12.346  0.00  0.00    -0.065 OA
ATOM     14  O   UNL     1      36.711 -25.621 -14.608  0.00  0.00    -0.065 OA
ENDBRANCH   3  11
BRANCH   4  15
ATOM     15  S   UNL     1      28.131 -23.256 -16.420  0.00  0.00    +0.042 S 
ATOM     16  O   UNL     1      28.406 -21.864 -17.233  0.00  0.00    -0.065 OA
ATOM     17  O   UNL     1      27.828 -24.276 -17.415  0.00  0.00    -0.065 OA
ATOM     18  O   UNL     1      27.199 -22.972 -15.341  0.00  0.00    -0.065 OA
ENDBRANCH   4  15
TORSDOF 2
ENDMDL
MODEL 8
REMARK VINA RESULT:      -8.8      3.324      6.258
REMARK  Name = 11390
REMARK  2 active torsions:
REMARK  status: ('A' for Active; 'I' for Inactive)
REMARK    1  A    between atoms: C_3  and  S_11
REMARK    2  A    between atoms: C_4  and  S_15
REMARK                            x       y       z     vdW  Elec       q    Type
REMARK                         _______ _______ _______ _____ _____    ______ ____
ROOT
ATOM      1  C   UNL     1      33.705 -23.403 -15.770  0.00  0.00    +0.001 C 
ATOM      2  C   UNL     1      32.962 -23.639 -14.590  0.00  0.00    +0.001 C 
ATOM      3  C   UNL     1      35.758 -23.905 -14.564  0.00  0.00    +0.112 C 
ATOM      4  C   UNL     1      30.909 -23.136 -15.797  0.00  0.00    +0.112 C 
ATOM      5  C   UNL     1      35.103 -23.540 -15.740  0.00  0.00    +0.019 C 
ATOM      6  C   UNL     1      31.564 -23.502 -14.620  0.00  0.00    +0.019 C 
ATOM      7  C   UNL     1      33.637 -24.006 -13.414  0.00  0.00    +0.001 C 
ATOM      8  C   UNL     1      33.030 -23.037 -16.947  0.00  0.00    +0.001 C 
ATOM      9  C   UNL     1      35.026 -24.137 -13.403  0.00  0.00    +0.019 C 
ATOM     10  C   UNL     1      31.641 -22.905 -16.958  0.00  0.00    +0.019 C 
ENDROOT
BRANCH   3  11
ATOM     11  S   UNL     1      37.496 -24.070 -14.547  0.00  0.00    +0.042 S 
ATOM     12  O   UNL     1      38.035 -23.052 -15.706  0.00  0.00    -0.065 OA
ATOM     13  O   UNL     1      37.984 -23.561 -13.275  0.00  0.00    -0.065 OA
ATOM     14  O   UNL     1      37.796 -25.431 -14.966  0.00  0.00    -0.065 OA
ENDBRANCH   3  11
BRANCH   4  15
ATOM     15  S   UNL     1      29.171 -22.972 -15.814  0.00  0.00    +0.042 S 
ATOM     16  O   UNL     1      28.793 -22.576 -17.355  0.00  0.00    -0.065 OA
ATOM     17  O   UNL     1      28.593 -24.284 -15.559  0.00  0.00    -0.065 OA
ATOM     18  O   UNL     1      28.845 -21.839 -14.964  0.00  0.00    -0.065 OA
ENDBRANCH   4  15
TORSDOF 2
ENDMDL
MODEL 9
REMARK VINA RESULT:      -8.6      5.293      9.301
REMARK  Name = 11390
REMARK  2 active torsions:
REMARK  status: ('A' for Active; 'I' for Inactive)
REMARK    1  A    between atoms: C_3  and  S_11
REMARK    2  A    between atoms: C_4  and  S_15
REMARK                            x       y       z     vdW  Elec       q    Type
REMARK                         _______ _______ _______ _____ _____    ______ ____
ROOT
ATOM      1  C   UNL     1      35.083 -19.682 -20.721  0.00  0.00    +0.001 C 
ATOM      2  C   UNL     1      33.823 -19.084 -20.962  0.00  0.00    +0.001 C 
ATOM      3  C   UNL     1      33.983 -21.479 -19.504  0.00  0.00    +0.112 C 
ATOM      4  C   UNL     1      34.925 -17.286 -22.178  0.00  0.00    +0.112 C 
ATOM      5  C   UNL     1      35.145 -20.880 -19.990  0.00  0.00    +0.019 C 
ATOM      6  C   UNL     1      33.761 -17.886 -21.693  0.00  0.00    +0.019 C 
ATOM      7  C   UNL     1      32.663 -19.700 -20.465  0.00  0.00    +0.001 C 
ATOM      8  C   UNL     1      36.244 -19.066 -21.218  0.00  0.00    +0.001 C 
ATOM      9  C   UNL     1      32.745 -20.890 -19.741  0.00  0.00    +0.019 C 
ATOM     10  C   UNL     1      36.163 -17.876 -21.942  0.00  0.00    +0.019 C 
ENDROOT
BRANCH   3  11
ATOM     11  S   UNL     1      34.082 -22.968 -18.597  0.00  0.00    +0.042 S 
ATOM     12  O   UNL     1      32.735 -22.997 -17.672  0.00  0.00    -0.065 OA
ATOM     13  O   UNL     1      33.976 -24.074 -19.537  0.00  0.00    -0.065 OA
ATOM     14  O   UNL     1      35.234 -22.851 -17.715  0.00  0.00    -0.065 OA
ENDBRANCH   3  11
BRANCH   4  15
ATOM     15  S   UNL     1      34.826 -15.798 -23.086  0.00  0.00    +0.042 S 
ATOM     16  O   UNL     1      33.264 -15.685 -23.556  0.00  0.00    -0.065 OA
ATOM     17  O   UNL     1      35.073 -14.695 -22.168  0.00  0.00    -0.065 OA
ATOM     18  O   UNL     1      35.644 -15.972 -24.275  0.00  0.00    -0.065 OA
ENDBRANCH   4  15
TORSDOF 2
ENDMDL
