MODEL 1
REMARK VINA RESULT:      -6.5      0.000      0.000
REMARK  Name = 8631
REMARK  3 active torsions:
REMARK  status: ('A' for Active; 'I' for Inactive)
REMARK    1  A    between atoms: C_3  and  C_12
REMARK    2  A    between atoms: C_4  and  O_9
REMARK    3  A    between atoms: C_12  and  O_13
REMARK                            x       y       z     vdW  Elec       q    Type
REMARK                         _______ _______ _______ _____ _____    ______ ____
ROOT
ATOM      1  I   UNL     1      34.258 -23.419 -15.919  0.00  0.00    -0.039 I 
ATOM      2  I   UNL     1      39.707 -25.505 -14.535  0.00  0.00    -0.043 I 
ATOM      3  C   UNL     1      36.212 -24.502 -12.163  0.00  0.00    +0.110 C 
ATOM      4  C   UNL     1      35.280 -24.072 -13.107  0.00  0.00    +0.145 C 
ATOM      5  C   UNL     1      37.481 -24.913 -12.572  0.00  0.00    +0.015 C 
ATOM      6  C   UNL     1      35.615 -24.054 -14.461  0.00  0.00    +0.064 C 
ATOM      7  C   UNL     1      37.817 -24.894 -13.926  0.00  0.00    +0.031 C 
ATOM      8  C   UNL     1      36.884 -24.464 -14.870  0.00  0.00    +0.015 C 
ENDROOT
BRANCH   4   9
ATOM      9  O   UNL     1      34.043 -23.675 -12.685  0.00  0.00    -0.505 OA
ATOM     10  H   UNL     1      33.956 -23.178 -11.895  0.00  0.00    +0.292 HD
ENDBRANCH   4   9
BRANCH   3  12
ATOM     11  O   UNL     1      35.089 -25.309 -10.210  0.00  0.00    -0.245 OA
ATOM     12  C   UNL     1      35.885 -24.531 -10.743  0.00  0.00    +0.341 C 
BRANCH  12  13
ATOM     13  O   UNL     1      36.564 -23.587 -10.037  0.00  0.00    -0.477 OA
ATOM     14  H   UNL     1      37.437 -23.760  -9.742  0.00  0.00    +0.295 HD
ENDBRANCH  12  13
ENDBRANCH   3  12
TORSDOF 3
ENDMDL
MODEL 2
REMARK VINA RESULT:      -6.4      3.692      4.649
REMARK  Name = 8631
REMARK  3 active torsions:
REMARK  status: ('A' for Active; 'I' for Inactive)
REMARK    1  A    between atoms: C_3  and  C_12
REMARK    2  A    between atoms: C_4  and  O_9
REMARK    3  A    between atoms: C_12  and  O_13
REMARK                            x       y       z     vdW  Elec       q    Type
REMARK                         _______ _______ _______ _____ _____    ______ ____
ROOT
ATOM      1  I   UNL     1      35.811 -24.329 -11.649  0.00  0.00    -0.039 I 
ATOM      2  I   UNL     1      36.996 -21.801 -16.956  0.00  0.00    -0.043 I 
ATOM      3  C   UNL     1      38.961 -24.894 -14.626  0.00  0.00    +0.110 C 
ATOM      4  C   UNL     1      38.167 -25.007 -13.485  0.00  0.00    +0.145 C 
ATOM      5  C   UNL     1      38.625 -23.975 -15.621  0.00  0.00    +0.015 C 
ATOM      6  C   UNL     1      37.037 -24.202 -13.338  0.00  0.00    +0.064 C 
ATOM      7  C   UNL     1      37.496 -23.170 -15.474  0.00  0.00    +0.031 C 
ATOM      8  C   UNL     1      36.702 -23.284 -14.333  0.00  0.00    +0.015 C 
ENDROOT
BRANCH   4   9
ATOM      9  O   UNL     1      38.513 -25.913 -12.523  0.00  0.00    -0.505 OA
ATOM     10  H   UNL     1      38.397 -26.829 -12.681  0.00  0.00    +0.292 HD
ENDBRANCH   4   9
BRANCH   3  12
ATOM     11  O   UNL     1      40.833 -26.188 -13.890  0.00  0.00    -0.245 OA
ATOM     12  C   UNL     1      40.146 -25.723 -14.803  0.00  0.00    +0.341 C 
BRANCH  12  13
ATOM     13  O   UNL     1      40.432 -25.945 -16.114  0.00  0.00    -0.477 OA
ATOM     14  H   UNL     1      40.271 -26.787 -16.493  0.00  0.00    +0.295 HD
ENDBRANCH  12  13
ENDBRANCH   3  12
TORSDOF 3
ENDMDL
MODEL 3
REMARK VINA RESULT:      -6.4      2.099      2.596
REMARK  Name = 8631
REMARK  3 active torsions:
REMARK  status: ('A' for Active; 'I' for Inactive)
REMARK    1  A    between atoms: C_3  and  C_12
REMARK    2  A    between atoms: C_4  and  O_9
REMARK    3  A    between atoms: C_12  and  O_13
REMARK                            x       y       z     vdW  Elec       q    Type
REMARK                         _______ _______ _______ _____ _____    ______ ____
ROOT
ATOM      1  I   UNL     1      32.005 -23.811 -14.227  0.00  0.00    -0.039 I 
ATOM      2  I   UNL     1      37.148 -21.955 -16.688  0.00  0.00    -0.043 I 
ATOM      3  C   UNL     1      36.213 -24.289 -13.149  0.00  0.00    +0.110 C 
ATOM      4  C   UNL     1      34.820 -24.358 -13.153  0.00  0.00    +0.145 C 
ATOM      5  C   UNL     1      36.880 -23.600 -14.162  0.00  0.00    +0.015 C 
ATOM      6  C   UNL     1      34.093 -23.739 -14.171  0.00  0.00    +0.064 C 
ATOM      7  C   UNL     1      36.154 -22.981 -15.180  0.00  0.00    +0.031 C 
ATOM      8  C   UNL     1      34.761 -23.051 -15.184  0.00  0.00    +0.015 C 
ENDROOT
BRANCH   4   9
ATOM      9  O   UNL     1      34.186 -25.038 -12.153  0.00  0.00    -0.505 OA
ATOM     10  H   UNL     1      34.200 -25.975 -12.142  0.00  0.00    +0.292 HD
ENDBRANCH   4   9
BRANCH   3  12
ATOM     11  O   UNL     1      37.758 -24.344 -11.323  0.00  0.00    -0.245 OA
ATOM     12  C   UNL     1      36.994 -24.927 -12.097  0.00  0.00    +0.341 C 
BRANCH  12  13
ATOM     13  O   UNL     1      36.794 -26.271 -12.048  0.00  0.00    -0.477 OA
ATOM     14  H   UNL     1      35.953 -26.628 -12.257  0.00  0.00    +0.295 HD
ENDBRANCH  12  13
ENDBRANCH   3  12
TORSDOF 3
ENDMDL
MODEL 4
REMARK VINA RESULT:      -6.3      2.113      3.462
REMARK  Name = 8631
REMARK  3 active torsions:
REMARK  status: ('A' for Active; 'I' for Inactive)
REMARK    1  A    between atoms: C_3  and  C_12
REMARK    2  A    between atoms: C_4  and  O_9
REMARK    3  A    between atoms: C_12  and  O_13
REMARK                            x       y       z     vdW  Elec       q    Type
REMARK                         _______ _______ _______ _____ _____    ______ ____
ROOT
ATOM      1  I   UNL     1      37.041 -22.171 -16.406  0.00  0.00    -0.039 I 
ATOM      2  I   UNL     1      31.665 -24.001 -14.482  0.00  0.00    -0.043 I 
ATOM      3  C   UNL     1      35.623 -24.000 -12.699  0.00  0.00    +0.110 C 
ATOM      4  C   UNL     1      36.433 -23.433 -13.683  0.00  0.00    +0.145 C 
ATOM      5  C   UNL     1      34.256 -24.163 -12.928  0.00  0.00    +0.015 C 
ATOM      6  C   UNL     1      35.876 -23.027 -14.896  0.00  0.00    +0.064 C 
ATOM      7  C   UNL     1      33.700 -23.758 -14.141  0.00  0.00    +0.031 C 
ATOM      8  C   UNL     1      34.510 -23.190 -15.125  0.00  0.00    +0.015 C 
ENDROOT
BRANCH   4   9
ATOM      9  O   UNL     1      37.767 -23.282 -13.438  0.00  0.00    -0.505 OA
ATOM     10  H   UNL     1      38.358 -23.127 -14.149  0.00  0.00    +0.292 HD
ENDBRANCH   4   9
BRANCH   3  12
ATOM     11  O   UNL     1      37.344 -24.246 -11.055  0.00  0.00    -0.245 OA
ATOM     12  C   UNL     1      36.180 -24.431 -11.424  0.00  0.00    +0.341 C 
BRANCH  12  13
ATOM     13  O   UNL     1      35.266 -25.077 -10.651  0.00  0.00    -0.477 OA
ATOM     14  H   UNL     1      35.547 -25.733 -10.043  0.00  0.00    +0.295 HD
ENDBRANCH  12  13
ENDBRANCH   3  12
TORSDOF 3
ENDMDL
MODEL 5
REMARK VINA RESULT:      -6.2     12.624     14.048
REMARK  Name = 8631
REMARK  3 active torsions:
REMARK  status: ('A' for Active; 'I' for Inactive)
REMARK    1  A    between atoms: C_3  and  C_12
REMARK    2  A    between atoms: C_4  and  O_9
REMARK    3  A    between atoms: C_12  and  O_13
REMARK                            x       y       z     vdW  Elec       q    Type
REMARK                         _______ _______ _______ _____ _____    ______ ____
ROOT
ATOM      1  I   UNL     1      33.114 -14.210 -26.534  0.00  0.00    -0.039 I 
ATOM      2  I   UNL     1      32.895 -14.483 -20.547  0.00  0.00    -0.043 I 
ATOM      3  C   UNL     1      34.646 -17.047 -23.582  0.00  0.00    +0.110 C 
ATOM      4  C   UNL     1      34.333 -16.406 -24.782  0.00  0.00    +0.145 C 
ATOM      5  C   UNL     1      34.233 -16.495 -22.369  0.00  0.00    +0.015 C 
ATOM      6  C   UNL     1      33.610 -15.213 -24.767  0.00  0.00    +0.064 C 
ATOM      7  C   UNL     1      33.509 -15.303 -22.355  0.00  0.00    +0.031 C 
ATOM      8  C   UNL     1      33.198 -14.663 -23.554  0.00  0.00    +0.015 C 
ENDROOT
BRANCH   4   9
ATOM      9  O   UNL     1      34.747 -16.962 -25.958  0.00  0.00    -0.505 OA
ATOM     10  H   UNL     1      34.134 -17.418 -26.501  0.00  0.00    +0.292 HD
ENDBRANCH   4   9
BRANCH   3  12
ATOM     11  O   UNL     1      35.058 -19.339 -24.128  0.00  0.00    -0.245 OA
ATOM     12  C   UNL     1      35.401 -18.293 -23.571  0.00  0.00    +0.341 C 
BRANCH  12  13
ATOM     13  O   UNL     1      36.559 -18.190 -22.865  0.00  0.00    -0.477 OA
ATOM     14  H   UNL     1      37.153 -18.914 -22.831  0.00  0.00    +0.295 HD
ENDBRANCH  12  13
ENDBRANCH   3  12
TORSDOF 3
ENDMDL
MODEL 6
REMARK VINA RESULT:      -6.2      3.506      5.508
REMARK  Name = 8631
REMARK  3 active torsions:
REMARK  status: ('A' for Active; 'I' for Inactive)
REMARK    1  A    between atoms: C_3  and  C_12
REMARK    2  A    between atoms: C_4  and  O_9
REMARK    3  A    between atoms: C_12  and  O_13
REMARK                            x       y       z     vdW  Elec       q    Type
REMARK                         _______ _______ _______ _____ _____    ______ ____
ROOT
ATOM      1  I   UNL     1      38.267 -25.428 -13.332  0.00  0.00    -0.039 I 
ATOM      2  I   UNL     1      32.559 -23.859 -14.292  0.00  0.00    -0.043 I 
ATOM      3  C   UNL     1      36.309 -22.747 -16.176  0.00  0.00    +0.110 C 
ATOM      4  C   UNL     1      37.267 -23.475 -15.469  0.00  0.00    +0.145 C 
ATOM      5  C   UNL     1      34.960 -22.857 -15.838  0.00  0.00    +0.015 C 
ATOM      6  C   UNL     1      36.875 -24.314 -14.425  0.00  0.00    +0.064 C 
ATOM      7  C   UNL     1      34.569 -23.695 -14.794  0.00  0.00    +0.031 C 
ATOM      8  C   UNL     1      35.526 -24.423 -14.088  0.00  0.00    +0.015 C 
ENDROOT
BRANCH   4   9
ATOM      9  O   UNL     1      38.582 -23.353 -15.816  0.00  0.00    -0.505 OA
ATOM     10  H   UNL     1      38.839 -23.437 -16.713  0.00  0.00    +0.292 HD
ENDBRANCH   4   9
BRANCH   3  12
ATOM     11  O   UNL     1      36.442 -22.056 -18.463  0.00  0.00    -0.245 OA
ATOM     12  C   UNL     1      36.693 -21.865 -17.270  0.00  0.00    +0.341 C 
BRANCH  12  13
ATOM     13  O   UNL     1      37.379 -20.772 -16.837  0.00  0.00    -0.477 OA
ATOM     14  H   UNL     1      36.941 -19.948 -16.754  0.00  0.00    +0.295 HD
ENDBRANCH  12  13
ENDBRANCH   3  12
TORSDOF 3
ENDMDL
MODEL 7
REMARK VINA RESULT:      -6.0      0.922      3.146
REMARK  Name = 8631
REMARK  3 active torsions:
REMARK  status: ('A' for Active; 'I' for Inactive)
REMARK    1  A    between atoms: C_3  and  C_12
REMARK    2  A    between atoms: C_4  and  O_9
REMARK    3  A    between atoms: C_12  and  O_13
REMARK                            x       y       z     vdW  Elec       q    Type
REMARK                         _______ _______ _______ _____ _____    ______ ____
ROOT
ATOM      1  I   UNL     1      39.737 -25.419 -14.551  0.00  0.00    -0.039 I 
ATOM      2  I   UNL     1      34.213 -23.452 -15.806  0.00  0.00    -0.043 I 
ATOM      3  C   UNL     1      36.300 -24.300 -12.094  0.00  0.00    +0.110 C 
ATOM      4  C   UNL     1      37.561 -24.727 -12.510  0.00  0.00    +0.145 C 
ATOM      5  C   UNL     1      35.340 -23.935 -13.039  0.00  0.00    +0.015 C 
ATOM      6  C   UNL     1      37.864 -24.787 -13.871  0.00  0.00    +0.064 C 
ATOM      7  C   UNL     1      35.643 -23.996 -14.399  0.00  0.00    +0.031 C 
ATOM      8  C   UNL     1      36.904 -24.422 -14.815  0.00  0.00    +0.015 C 
ENDROOT
BRANCH   4   9
ATOM      9  O   UNL     1      38.486 -25.080 -11.570  0.00  0.00    -0.505 OA
ATOM     10  H   UNL     1      39.364 -24.759 -11.635  0.00  0.00    +0.292 HD
ENDBRANCH   4   9
BRANCH   3  12
ATOM     11  O   UNL     1      35.170 -24.976 -10.096  0.00  0.00    -0.245 OA
ATOM     12  C   UNL     1      35.960 -24.228 -10.680  0.00  0.00    +0.341 C 
BRANCH  12  13
ATOM     13  O   UNL     1      36.619 -23.225 -10.039  0.00  0.00    -0.477 OA
ATOM     14  H   UNL     1      37.093 -23.404  -9.251  0.00  0.00    +0.295 HD
ENDBRANCH  12  13
ENDBRANCH   3  12
TORSDOF 3
ENDMDL
MODEL 8
REMARK VINA RESULT:      -6.0      3.470      5.235
REMARK  Name = 8631
REMARK  3 active torsions:
REMARK  status: ('A' for Active; 'I' for Inactive)
REMARK    1  A    between atoms: C_3  and  C_12
REMARK    2  A    between atoms: C_4  and  O_9
REMARK    3  A    between atoms: C_12  and  O_13
REMARK                            x       y       z     vdW  Elec       q    Type
REMARK                         _______ _______ _______ _____ _____    ______ ____
ROOT
ATOM      1  I   UNL     1      34.208 -22.400 -19.103  0.00  0.00    -0.039 I 
ATOM      2  I   UNL     1      29.409 -23.257 -15.610  0.00  0.00    -0.043 I 
ATOM      3  C   UNL     1      33.678 -23.714 -14.968  0.00  0.00    +0.110 C 
ATOM      4  C   UNL     1      34.242 -23.350 -16.192  0.00  0.00    +0.145 C 
ATOM      5  C   UNL     1      32.294 -23.688 -14.802  0.00  0.00    +0.015 C 
ATOM      6  C   UNL     1      33.419 -22.957 -17.249  0.00  0.00    +0.064 C 
ATOM      7  C   UNL     1      31.472 -23.296 -15.859  0.00  0.00    +0.031 C 
ATOM      8  C   UNL     1      32.035 -22.931 -17.082  0.00  0.00    +0.015 C 
ENDROOT
BRANCH   4   9
ATOM      9  O   UNL     1      35.599 -23.382 -16.334  0.00  0.00    -0.505 OA
ATOM     10  H   UNL     1      36.111 -23.959 -15.802  0.00  0.00    +0.292 HD
ENDBRANCH   4   9
BRANCH   3  12
ATOM     11  O   UNL     1      35.529 -24.827 -13.937  0.00  0.00    -0.245 OA
ATOM     12  C   UNL     1      34.516 -24.127 -13.850  0.00  0.00    +0.341 C 
BRANCH  12  13
ATOM     13  O   UNL     1      34.061 -23.651 -12.659  0.00  0.00    -0.477 OA
ATOM     14  H   UNL     1      34.314 -24.069 -11.860  0.00  0.00    +0.295 HD
ENDBRANCH  12  13
ENDBRANCH   3  12
TORSDOF 3
ENDMDL
MODEL 9
REMARK VINA RESULT:      -6.0     12.685     14.282
REMARK  Name = 8631
REMARK  3 active torsions:
REMARK  status: ('A' for Active; 'I' for Inactive)
REMARK    1  A    between atoms: C_3  and  C_12
REMARK    2  A    between atoms: C_4  and  O_9
REMARK    3  A    between atoms: C_12  and  O_13
REMARK                            x       y       z     vdW  Elec       q    Type
REMARK                         _______ _______ _______ _____ _____    ______ ____
ROOT
ATOM      1  I   UNL     1      33.069 -14.354 -26.150  0.00  0.00    -0.039 I 
ATOM      2  I   UNL     1      31.338 -11.496 -21.170  0.00  0.00    -0.043 I 
ATOM      3  C   UNL     1      33.601 -15.132 -21.882  0.00  0.00    +0.110 C 
ATOM      4  C   UNL     1      33.647 -15.230 -23.273  0.00  0.00    +0.145 C 
ATOM      5  C   UNL     1      32.939 -14.061 -21.280  0.00  0.00    +0.015 C 
ATOM      6  C   UNL     1      33.032 -14.257 -24.062  0.00  0.00    +0.064 C 
ATOM      7  C   UNL     1      32.324 -13.089 -22.068  0.00  0.00    +0.031 C 
ATOM      8  C   UNL     1      32.370 -13.187 -23.459  0.00  0.00    +0.015 C 
ENDROOT
BRANCH   4   9
ATOM      9  O   UNL     1      34.300 -16.285 -23.842  0.00  0.00    -0.505 OA
ATOM     10  H   UNL     1      34.244 -17.135 -23.453  0.00  0.00    +0.292 HD
ENDBRANCH   4   9
BRANCH   3  12
ATOM     11  O   UNL     1      34.135 -17.356 -21.181  0.00  0.00    -0.245 OA
ATOM     12  C   UNL     1      34.235 -16.135 -21.037  0.00  0.00    +0.341 C 
BRANCH  12  13
ATOM     13  O   UNL     1      34.976 -15.578 -20.041  0.00  0.00    -0.477 OA
ATOM     14  H   UNL     1      34.596 -15.440 -19.195  0.00  0.00    +0.295 HD
ENDBRANCH  12  13
ENDBRANCH   3  12
TORSDOF 3
ENDMDL
