MODEL 1
REMARK VINA RESULT:      -9.5      0.000      0.000
REMARK  Name = 3025986
REMARK  5 active torsions:
REMARK  status: ('A' for Active; 'I' for Inactive)
REMARK    1  A    between atoms: C_5  and  C_11
REMARK    2  A    between atoms: C_7  and  S_18
REMARK    3  A    between atoms: S_18  and  C_19
REMARK    4  A    between atoms: C_19  and  C_24
REMARK    5  A    between atoms: C_22  and  C_25
REMARK                            x       y       z     vdW  Elec       q    Type
REMARK                         _______ _______ _______ _____ _____    ______ ____
ROOT
ATOM      1  S   UNL     1      32.690 -13.758 -20.751  0.00  0.00    -0.045 S 
ATOM      2  O   UNL     1      34.945 -15.950 -24.177  0.00  0.00    -0.275 OA
ATOM      3  N   UNL     1      34.255 -15.467 -21.975  0.00  0.00    -0.264 N 
ATOM      4  N   UNL     1      33.093 -13.827 -23.304  0.00  0.00    -0.222 NA
ATOM      5  C   UNL     1      34.946 -16.150 -22.968  0.00  0.00    +0.227 C 
ATOM      6  C   UNL     1      33.395 -14.383 -22.171  0.00  0.00    +0.166 C 
ATOM      7  C   UNL     1      31.877 -12.603 -21.724  0.00  0.00    +0.077 C 
ATOM      8  C   UNL     1      32.212 -12.794 -23.048  0.00  0.00    +0.114 C 
ATOM      9  H   UNL     1      34.383 -15.776 -21.048  0.00  0.00    +0.157 HD
ENDROOT
BRANCH   5  11
ATOM     10  N   UNL     1      34.147 -19.666 -21.998  0.00  0.00    +0.384 N 
ATOM     11  C   UNL     1      35.776 -17.256 -22.376  0.00  0.00    +0.073 C 
ATOM     12  C   UNL     1      35.231 -17.674 -21.009  0.00  0.00    -0.014 C 
ATOM     13  C   UNL     1      35.844 -18.453 -23.328  0.00  0.00    -0.014 C 
ATOM     14  C   UNL     1      33.954 -18.509 -21.124  0.00  0.00    -0.081 C 
ATOM     15  C   UNL     1      34.542 -19.255 -23.346  0.00  0.00    -0.081 C 
ATOM     16  H   UNL     1      33.274 -20.190 -22.053  0.00  0.00    -0.085 HD
ATOM     17  H   UNL     1      34.890 -20.244 -21.608  0.00  0.00    -0.085 HD
ENDBRANCH   5  11
BRANCH   7  18
ATOM     18  S   UNL     1      30.799 -11.393 -21.072  0.00  0.00    -0.096 S 
BRANCH  18  19
ATOM     19  C   UNL     1      31.910 -10.535 -19.925  0.00  0.00    +0.148 C 
BRANCH  19  24
ATOM     20  O   UNL     1      31.930  -8.824 -21.612  0.00  0.00    -0.442 OA
ATOM     21  N   UNL     1      32.309  -8.093 -19.506  0.00  0.00    -0.210 NA
ATOM     22  C   UNL     1      32.116  -7.476 -21.659  0.00  0.00    +0.143 C 
ATOM     23  C   UNL     1      32.345  -7.037 -20.379  0.00  0.00    +0.135 C 
ATOM     24  C   UNL     1      32.064  -9.089 -20.297  0.00  0.00    +0.217 C 
BRANCH  22  25
ATOM     25  C   UNL     1      32.037  -6.834 -22.975  0.00  0.00    +0.053 C 
ATOM     26  C   UNL     1      31.672  -5.306 -22.882  0.00  0.00    +0.008 C 
ATOM     27  C   UNL     1      30.954  -7.494 -23.907  0.00  0.00    +0.008 C 
ATOM     28  C   UNL     1      33.358  -6.862 -23.840  0.00  0.00    +0.008 C 
ENDBRANCH  22  25
ENDBRANCH  19  24
ENDBRANCH  18  19
ENDBRANCH   7  18
TORSDOF 5
ENDMDL
MODEL 2
REMARK VINA RESULT:      -9.2      1.420      1.880
REMARK  Name = 3025986
REMARK  5 active torsions:
REMARK  status: ('A' for Active; 'I' for Inactive)
REMARK    1  A    between atoms: C_5  and  C_11
REMARK    2  A    between atoms: C_7  and  S_18
REMARK    3  A    between atoms: S_18  and  C_19
REMARK    4  A    between atoms: C_19  and  C_24
REMARK    5  A    between atoms: C_22  and  C_25
REMARK                            x       y       z     vdW  Elec       q    Type
REMARK                         _______ _______ _______ _____ _____    ______ ____
ROOT
ATOM      1  S   UNL     1      32.645 -14.174 -22.942  0.00  0.00    -0.045 S 
ATOM      2  O   UNL     1      35.291 -16.933 -20.294  0.00  0.00    -0.275 OA
ATOM      3  N   UNL     1      34.206 -16.158 -22.238  0.00  0.00    -0.264 N 
ATOM      4  N   UNL     1      33.576 -14.548 -20.560  0.00  0.00    -0.222 NA
ATOM      5  C   UNL     1      35.004 -17.008 -21.483  0.00  0.00    +0.227 C 
ATOM      6  C   UNL     1      33.553 -15.015 -21.771  0.00  0.00    +0.166 C 
ATOM      7  C   UNL     1      32.215 -13.045 -21.725  0.00  0.00    +0.077 C 
ATOM      8  C   UNL     1      32.801 -13.405 -20.530  0.00  0.00    +0.114 C 
ATOM      9  H   UNL     1      34.089 -16.383 -23.190  0.00  0.00    +0.157 HD
ENDROOT
BRANCH   5  11
ATOM     10  N   UNL     1      35.589 -20.629 -20.786  0.00  0.00    +0.384 N 
ATOM     11  C   UNL     1      35.532 -18.134 -22.328  0.00  0.00    +0.073 C 
ATOM     12  C   UNL     1      36.822 -18.703 -21.732  0.00  0.00    -0.014 C 
ATOM     13  C   UNL     1      34.477 -19.230 -22.496  0.00  0.00    -0.014 C 
ATOM     14  C   UNL     1      36.557 -19.571 -20.499  0.00  0.00    -0.081 C 
ATOM     15  C   UNL     1      34.311 -20.075 -21.232  0.00  0.00    -0.081 C 
ATOM     16  H   UNL     1      35.436 -21.177 -19.940  0.00  0.00    -0.085 HD
ATOM     17  H   UNL     1      35.964 -21.214 -21.532  0.00  0.00    -0.085 HD
ENDBRANCH   5  11
BRANCH   7  18
ATOM     18  S   UNL     1      31.185 -11.666 -22.022  0.00  0.00    -0.096 S 
BRANCH  18  19
ATOM     19  C   UNL     1      31.374 -10.762 -20.462  0.00  0.00    +0.148 C 
BRANCH  19  24
ATOM     20  O   UNL     1      31.646  -8.903 -21.959  0.00  0.00    -0.442 OA
ATOM     21  N   UNL     1      32.375  -8.544 -19.848  0.00  0.00    -0.210 NA
ATOM     22  C   UNL     1      32.140  -7.636 -21.891  0.00  0.00    +0.143 C 
ATOM     23  C   UNL     1      32.581  -7.422 -20.609  0.00  0.00    +0.135 C 
ATOM     24  C   UNL     1      31.832  -9.353 -20.702  0.00  0.00    +0.217 C 
BRANCH  22  25
ATOM     25  C   UNL     1      32.096  -6.833 -23.117  0.00  0.00    +0.053 C 
ATOM     26  C   UNL     1      30.989  -7.322 -24.123  0.00  0.00    +0.008 C 
ATOM     27  C   UNL     1      33.457  -6.860 -23.907  0.00  0.00    +0.008 C 
ATOM     28  C   UNL     1      31.793  -5.295 -22.928  0.00  0.00    +0.008 C 
ENDBRANCH  22  25
ENDBRANCH  19  24
ENDBRANCH  18  19
ENDBRANCH   7  18
TORSDOF 5
ENDMDL
MODEL 3
REMARK VINA RESULT:      -9.2      2.103      9.900
REMARK  Name = 3025986
REMARK  5 active torsions:
REMARK  status: ('A' for Active; 'I' for Inactive)
REMARK    1  A    between atoms: C_5  and  C_11
REMARK    2  A    between atoms: C_7  and  S_18
REMARK    3  A    between atoms: S_18  and  C_19
REMARK    4  A    between atoms: C_19  and  C_24
REMARK    5  A    between atoms: C_22  and  C_25
REMARK                            x       y       z     vdW  Elec       q    Type
REMARK                         _______ _______ _______ _____ _____    ______ ____
ROOT
ATOM      1  S   UNL     1      33.270 -11.172 -24.058  0.00  0.00    -0.045 S 
ATOM      2  O   UNL     1      31.667  -8.192 -20.869  0.00  0.00    -0.275 OA
ATOM      3  N   UNL     1      32.802  -8.920 -22.803  0.00  0.00    -0.264 N 
ATOM      4  N   UNL     1      31.902 -10.954 -21.876  0.00  0.00    -0.222 NA
ATOM      5  C   UNL     1      32.342  -7.996 -21.873  0.00  0.00    +0.227 C 
ATOM      6  C   UNL     1      32.575 -10.299 -22.771  0.00  0.00    +0.166 C 
ATOM      7  C   UNL     1      32.616 -12.603 -23.374  0.00  0.00    +0.077 C 
ATOM      8  C   UNL     1      31.924 -12.291 -22.223  0.00  0.00    +0.114 C 
ATOM      9  H   UNL     1      33.336  -8.571 -23.553  0.00  0.00    +0.157 HD
ENDROOT
BRANCH   5  11
ATOM     10  N   UNL     1      30.635  -5.170 -23.616  0.00  0.00    +0.384 N 
ATOM     11  C   UNL     1      32.788  -6.607 -22.236  0.00  0.00    +0.073 C 
ATOM     12  C   UNL     1      32.772  -6.409 -23.753  0.00  0.00    -0.014 C 
ATOM     13  C   UNL     1      31.920  -5.557 -21.538  0.00  0.00    -0.014 C 
ATOM     14  C   UNL     1      31.353  -6.244 -24.302  0.00  0.00    -0.081 C 
ATOM     15  C   UNL     1      30.538  -5.428 -22.179  0.00  0.00    -0.081 C 
ATOM     16  H   UNL     1      29.695  -5.098 -24.004  0.00  0.00    -0.085 HD
ATOM     17  H   UNL     1      31.149  -4.300 -23.752  0.00  0.00    -0.085 HD
ENDBRANCH   5  11
BRANCH   7  18
ATOM     18  S   UNL     1      32.832 -14.186 -24.080  0.00  0.00    -0.096 S 
BRANCH  18  19
ATOM     19  C   UNL     1      34.550 -14.530 -23.615  0.00  0.00    +0.148 C 
BRANCH  19  24
ATOM     20  O   UNL     1      34.703 -16.783 -22.794  0.00  0.00    -0.442 OA
ATOM     21  N   UNL     1      34.607 -15.188 -21.194  0.00  0.00    -0.210 NA
ATOM     22  C   UNL     1      34.749 -17.398 -21.581  0.00  0.00    +0.143 C 
ATOM     23  C   UNL     1      34.691 -16.427 -20.612  0.00  0.00    +0.135 C 
ATOM     24  C   UNL     1      34.619 -15.481 -22.455  0.00  0.00    +0.217 C 
BRANCH  22  25
ATOM     25  C   UNL     1      34.842 -18.862 -21.573  0.00  0.00    +0.053 C 
ATOM     26  C   UNL     1      36.140 -19.382 -20.850  0.00  0.00    +0.008 C 
ATOM     27  C   UNL     1      34.866 -19.474 -23.023  0.00  0.00    +0.008 C 
ATOM     28  C   UNL     1      33.666 -19.628 -20.851  0.00  0.00    +0.008 C 
ENDBRANCH  22  25
ENDBRANCH  19  24
ENDBRANCH  18  19
ENDBRANCH   7  18
TORSDOF 5
ENDMDL
MODEL 4
REMARK VINA RESULT:      -9.2      7.268     10.698
REMARK  Name = 3025986
REMARK  5 active torsions:
REMARK  status: ('A' for Active; 'I' for Inactive)
REMARK    1  A    between atoms: C_5  and  C_11
REMARK    2  A    between atoms: C_7  and  S_18
REMARK    3  A    between atoms: S_18  and  C_19
REMARK    4  A    between atoms: C_19  and  C_24
REMARK    5  A    between atoms: C_22  and  C_25
REMARK                            x       y       z     vdW  Elec       q    Type
REMARK                         _______ _______ _______ _____ _____    ______ ____
ROOT
ATOM      1  S   UNL     1      37.014 -21.644 -17.424  0.00  0.00    -0.045 S 
ATOM      2  O   UNL     1      34.583 -24.231 -14.420  0.00  0.00    -0.275 OA
ATOM      3  N   UNL     1      36.375 -22.933 -15.233  0.00  0.00    -0.264 N 
ATOM      4  N   UNL     1      34.817 -22.960 -17.071  0.00  0.00    -0.222 NA
ATOM      5  C   UNL     1      35.682 -23.700 -14.305  0.00  0.00    +0.227 C 
ATOM      6  C   UNL     1      35.938 -22.607 -16.519  0.00  0.00    +0.166 C 
ATOM      7  C   UNL     1      35.885 -21.683 -18.714  0.00  0.00    +0.077 C 
ATOM      8  C   UNL     1      34.783 -22.425 -18.344  0.00  0.00    +0.114 C 
ATOM      9  H   UNL     1      37.255 -22.587 -14.958  0.00  0.00    +0.157 HD
ENDROOT
BRANCH   5  11
ATOM     10  N   UNL     1      38.434 -26.004 -13.278  0.00  0.00    +0.384 N 
ATOM     11  C   UNL     1      36.470 -23.839 -13.032  0.00  0.00    +0.073 C 
ATOM     12  C   UNL     1      36.255 -25.220 -12.407  0.00  0.00    -0.014 C 
ATOM     13  C   UNL     1      37.957 -23.577 -13.282  0.00  0.00    -0.014 C 
ATOM     14  C   UNL     1      37.011 -26.319 -13.157  0.00  0.00    -0.081 C 
ATOM     15  C   UNL     1      38.641 -24.745 -13.993  0.00  0.00    -0.081 C 
ATOM     16  H   UNL     1      38.898 -26.756 -13.787  0.00  0.00    -0.085 HD
ATOM     17  H   UNL     1      38.825 -25.909 -12.341  0.00  0.00    -0.085 HD
ENDBRANCH   5  11
BRANCH   7  18
ATOM     18  S   UNL     1      36.151 -20.879 -20.242  0.00  0.00    -0.096 S 
BRANCH  18  19
ATOM     19  C   UNL     1      34.497 -20.213 -20.565  0.00  0.00    +0.148 C 
BRANCH  19  24
ATOM     20  O   UNL     1      34.184 -17.860 -20.936  0.00  0.00    -0.442 OA
ATOM     21  N   UNL     1      34.919 -19.021 -22.732  0.00  0.00    -0.210 NA
ATOM     22  C   UNL     1      34.330 -16.988 -21.971  0.00  0.00    +0.143 C 
ATOM     23  C   UNL     1      34.777 -17.697 -23.059  0.00  0.00    +0.135 C 
ATOM     24  C   UNL     1      34.556 -19.031 -21.489  0.00  0.00    +0.217 C 
BRANCH  22  25
ATOM     25  C   UNL     1      34.001 -15.583 -21.717  0.00  0.00    +0.053 C 
ATOM     26  C   UNL     1      34.394 -14.641 -22.915  0.00  0.00    +0.008 C 
ATOM     27  C   UNL     1      34.729 -15.011 -20.444  0.00  0.00    +0.008 C 
ATOM     28  C   UNL     1      32.475 -15.263 -21.462  0.00  0.00    +0.008 C 
ENDBRANCH  22  25
ENDBRANCH  19  24
ENDBRANCH  18  19
ENDBRANCH   7  18
TORSDOF 5
ENDMDL
MODEL 5
REMARK VINA RESULT:      -9.1      7.244     10.689
REMARK  Name = 3025986
REMARK  5 active torsions:
REMARK  status: ('A' for Active; 'I' for Inactive)
REMARK    1  A    between atoms: C_5  and  C_11
REMARK    2  A    between atoms: C_7  and  S_18
REMARK    3  A    between atoms: S_18  and  C_19
REMARK    4  A    between atoms: C_19  and  C_24
REMARK    5  A    between atoms: C_22  and  C_25
REMARK                            x       y       z     vdW  Elec       q    Type
REMARK                         _______ _______ _______ _____ _____    ______ ____
ROOT
ATOM      1  S   UNL     1      34.324 -22.643 -17.722  0.00  0.00    -0.045 S 
ATOM      2  O   UNL     1      37.945 -23.589 -14.963  0.00  0.00    -0.275 OA
ATOM      3  N   UNL     1      35.723 -23.650 -15.748  0.00  0.00    -0.264 N 
ATOM      4  N   UNL     1      36.843 -22.218 -17.330  0.00  0.00    -0.222 NA
ATOM      5  C   UNL     1      36.778 -23.958 -14.899  0.00  0.00    +0.227 C 
ATOM      6  C   UNL     1      35.792 -22.830 -16.878  0.00  0.00    +0.166 C 
ATOM      7  C   UNL     1      35.149 -21.628 -18.831  0.00  0.00    +0.077 C 
ATOM      8  C   UNL     1      36.474 -21.520 -18.463  0.00  0.00    +0.114 C 
ATOM      9  H   UNL     1      34.846 -24.045 -15.534  0.00  0.00    +0.157 HD
ENDROOT
BRANCH   5  11
ATOM     10  N   UNL     1      37.536 -24.058 -11.245  0.00  0.00    +0.384 N 
ATOM     11  C   UNL     1      36.322 -24.866 -13.790  0.00  0.00    +0.073 C 
ATOM     12  C   UNL     1      37.509 -25.609 -13.172  0.00  0.00    -0.014 C 
ATOM     13  C   UNL     1      35.554 -24.080 -12.725  0.00  0.00    -0.014 C 
ATOM     14  C   UNL     1      38.353 -24.705 -12.271  0.00  0.00    -0.081 C 
ATOM     15  C   UNL     1      36.480 -23.241 -11.843  0.00  0.00    -0.081 C 
ATOM     16  H   UNL     1      38.133 -23.462 -10.672  0.00  0.00    -0.085 HD
ATOM     17  H   UNL     1      37.098 -24.783 -10.676  0.00  0.00    -0.085 HD
ENDBRANCH   5  11
BRANCH   7  18
ATOM     18  S   UNL     1      34.369 -20.875 -20.201  0.00  0.00    -0.096 S 
BRANCH  18  19
ATOM     19  C   UNL     1      35.755 -19.945 -20.908  0.00  0.00    +0.148 C 
BRANCH  19  24
ATOM     20  O   UNL     1      34.671 -17.804 -21.027  0.00  0.00    -0.442 OA
ATOM     21  N   UNL     1      35.362 -18.636 -23.013  0.00  0.00    -0.210 NA
ATOM     22  C   UNL     1      34.339 -16.910 -21.998  0.00  0.00    +0.143 C 
ATOM     23  C   UNL     1      34.761 -17.418 -23.202  0.00  0.00    +0.135 C 
ATOM     24  C   UNL     1      35.269 -18.786 -21.730  0.00  0.00    +0.217 C 
BRANCH  22  25
ATOM     25  C   UNL     1      33.651 -15.686 -21.577  0.00  0.00    +0.053 C 
ATOM     26  C   UNL     1      33.226 -14.780 -22.792  0.00  0.00    +0.008 C 
ATOM     27  C   UNL     1      34.539 -14.784 -20.640  0.00  0.00    +0.008 C 
ATOM     28  C   UNL     1      32.315 -15.888 -20.761  0.00  0.00    +0.008 C 
ENDBRANCH  22  25
ENDBRANCH  19  24
ENDBRANCH  18  19
ENDBRANCH   7  18
TORSDOF 5
ENDMDL
MODEL 6
REMARK VINA RESULT:      -8.9      5.351      8.799
REMARK  Name = 3025986
REMARK  5 active torsions:
REMARK  status: ('A' for Active; 'I' for Inactive)
REMARK    1  A    between atoms: C_5  and  C_11
REMARK    2  A    between atoms: C_7  and  S_18
REMARK    3  A    between atoms: S_18  and  C_19
REMARK    4  A    between atoms: C_19  and  C_24
REMARK    5  A    between atoms: C_22  and  C_25
REMARK                            x       y       z     vdW  Elec       q    Type
REMARK                         _______ _______ _______ _____ _____    ______ ____
ROOT
ATOM      1  S   UNL     1      35.637 -21.273 -19.875  0.00  0.00    -0.045 S 
ATOM      2  O   UNL     1      31.645 -22.415 -17.780  0.00  0.00    -0.275 OA
ATOM      3  N   UNL     1      33.941 -22.513 -18.308  0.00  0.00    -0.264 N 
ATOM      4  N   UNL     1      33.118 -20.723 -19.695  0.00  0.00    -0.222 NA
ATOM      5  C   UNL     1      32.771 -22.886 -17.660  0.00  0.00    +0.227 C 
ATOM      6  C   UNL     1      34.065 -21.494 -19.257  0.00  0.00    +0.166 C 
ATOM      7  C   UNL     1      35.021 -20.003 -20.849  0.00  0.00    +0.077 C 
ATOM      8  C   UNL     1      33.669 -19.856 -20.618  0.00  0.00    +0.114 C 
ATOM      9  H   UNL     1      34.758 -23.014 -18.079  0.00  0.00    +0.157 HD
ENDROOT
BRANCH   5  11
ATOM     10  N   UNL     1      33.472 -23.013 -13.995  0.00  0.00    +0.384 N 
ATOM     11  C   UNL     1      33.026 -24.025 -16.711  0.00  0.00    +0.073 C 
ATOM     12  C   UNL     1      34.421 -23.917 -16.093  0.00  0.00    -0.014 C 
ATOM     13  C   UNL     1      31.949 -24.081 -15.626  0.00  0.00    -0.014 C 
ATOM     14  C   UNL     1      34.497 -22.828 -15.021  0.00  0.00    -0.081 C 
ATOM     15  C   UNL     1      32.129 -22.985 -14.574  0.00  0.00    -0.081 C 
ATOM     16  H   UNL     1      33.553 -22.266 -13.306  0.00  0.00    -0.085 HD
ATOM     17  H   UNL     1      33.615 -23.923 -13.557  0.00  0.00    -0.085 HD
ENDBRANCH   5  11
BRANCH   7  18
ATOM     18  S   UNL     1      36.011 -19.074 -21.947  0.00  0.00    -0.096 S 
BRANCH  18  19
ATOM     19  C   UNL     1      34.988 -19.118 -23.443  0.00  0.00    +0.148 C 
BRANCH  19  24
ATOM     20  O   UNL     1      34.417 -16.860 -22.852  0.00  0.00    -0.442 OA
ATOM     21  N   UNL     1      34.374 -17.308 -25.069  0.00  0.00    -0.210 NA
ATOM     22  C   UNL     1      34.056 -15.722 -23.507  0.00  0.00    +0.143 C 
ATOM     23  C   UNL     1      34.031 -15.998 -24.851  0.00  0.00    +0.135 C 
ATOM     24  C   UNL     1      34.580 -17.736 -23.864  0.00  0.00    +0.217 C 
BRANCH  22  25
ATOM     25  C   UNL     1      33.790 -14.534 -22.690  0.00  0.00    +0.053 C 
ATOM     26  C   UNL     1      33.908 -13.196 -23.510  0.00  0.00    +0.008 C 
ATOM     27  C   UNL     1      34.783 -14.400 -21.476  0.00  0.00    +0.008 C 
ATOM     28  C   UNL     1      32.359 -14.455 -22.027  0.00  0.00    +0.008 C 
ENDBRANCH  22  25
ENDBRANCH  19  24
ENDBRANCH  18  19
ENDBRANCH   7  18
TORSDOF 5
ENDMDL
MODEL 7
REMARK VINA RESULT:      -8.8      6.387     10.204
REMARK  Name = 3025986
REMARK  5 active torsions:
REMARK  status: ('A' for Active; 'I' for Inactive)
REMARK    1  A    between atoms: C_5  and  C_11
REMARK    2  A    between atoms: C_7  and  S_18
REMARK    3  A    between atoms: S_18  and  C_19
REMARK    4  A    between atoms: C_19  and  C_24
REMARK    5  A    between atoms: C_22  and  C_25
REMARK                            x       y       z     vdW  Elec       q    Type
REMARK                         _______ _______ _______ _____ _____    ______ ____
ROOT
ATOM      1  S   UNL     1      33.578 -21.680 -19.526  0.00  0.00    -0.045 S 
ATOM      2  O   UNL     1      32.714 -23.678 -15.417  0.00  0.00    -0.275 OA
ATOM      3  N   UNL     1      32.248 -22.644 -17.484  0.00  0.00    -0.264 N 
ATOM      4  N   UNL     1      34.655 -22.745 -17.432  0.00  0.00    -0.222 NA
ATOM      5  C   UNL     1      31.946 -23.236 -16.265  0.00  0.00    +0.227 C 
ATOM      6  C   UNL     1      33.530 -22.431 -17.998  0.00  0.00    +0.166 C 
ATOM      7  C   UNL     1      35.289 -21.766 -19.460  0.00  0.00    +0.077 C 
ATOM      8  C   UNL     1      35.677 -22.361 -18.278  0.00  0.00    +0.114 C 
ATOM      9  H   UNL     1      31.489 -22.347 -18.037  0.00  0.00    +0.157 HD
ENDROOT
BRANCH   5  11
ATOM     10  N   UNL     1      29.816 -25.005 -13.759  0.00  0.00    +0.384 N 
ATOM     11  C   UNL     1      30.459 -23.291 -16.051  0.00  0.00    +0.073 C 
ATOM     12  C   UNL     1      29.937 -24.720 -16.214  0.00  0.00    -0.014 C 
ATOM     13  C   UNL     1      30.085 -22.724 -14.680  0.00  0.00    -0.014 C 
ATOM     14  C   UNL     1      30.279 -25.602 -15.011  0.00  0.00    -0.081 C 
ATOM     15  C   UNL     1      30.420 -23.690 -13.542  0.00  0.00    -0.081 C 
ATOM     16  H   UNL     1      30.069 -25.618 -12.985  0.00  0.00    -0.085 HD
ATOM     17  H   UNL     1      28.804 -24.889 -13.812  0.00  0.00    -0.085 HD
ENDBRANCH   5  11
BRANCH   7  18
ATOM     18  S   UNL     1      36.327 -21.172 -20.733  0.00  0.00    -0.096 S 
BRANCH  18  19
ATOM     19  C   UNL     1      36.449 -19.422 -20.278  0.00  0.00    +0.148 C 
BRANCH  19  24
ATOM     20  O   UNL     1      35.111 -17.473 -20.708  0.00  0.00    -0.442 OA
ATOM     21  N   UNL     1      35.582 -18.730 -22.529  0.00  0.00    -0.210 NA
ATOM     22  C   UNL     1      34.529 -16.886 -21.790  0.00  0.00    +0.143 C 
ATOM     23  C   UNL     1      34.816 -17.652 -22.892  0.00  0.00    +0.135 C 
ATOM     24  C   UNL     1      35.707 -18.554 -21.252  0.00  0.00    +0.217 C 
BRANCH  22  25
ATOM     25  C   UNL     1      33.773 -15.652 -21.556  0.00  0.00    +0.053 C 
ATOM     26  C   UNL     1      33.412 -14.901 -22.891  0.00  0.00    +0.008 C 
ATOM     27  C   UNL     1      34.558 -14.620 -20.664  0.00  0.00    +0.008 C 
ATOM     28  C   UNL     1      32.385 -15.817 -20.821  0.00  0.00    +0.008 C 
ENDBRANCH  22  25
ENDBRANCH  19  24
ENDBRANCH  18  19
ENDBRANCH   7  18
TORSDOF 5
ENDMDL
MODEL 8
REMARK VINA RESULT:      -8.8      5.782      9.382
REMARK  Name = 3025986
REMARK  5 active torsions:
REMARK  status: ('A' for Active; 'I' for Inactive)
REMARK    1  A    between atoms: C_5  and  C_11
REMARK    2  A    between atoms: C_7  and  S_18
REMARK    3  A    between atoms: S_18  and  C_19
REMARK    4  A    between atoms: C_19  and  C_24
REMARK    5  A    between atoms: C_22  and  C_25
REMARK                            x       y       z     vdW  Elec       q    Type
REMARK                         _______ _______ _______ _____ _____    ______ ____
ROOT
ATOM      1  S   UNL     1      35.113 -21.935 -19.141  0.00  0.00    -0.045 S 
ATOM      2  O   UNL     1      30.874 -22.484 -17.309  0.00  0.00    -0.275 OA
ATOM      3  N   UNL     1      33.174 -22.876 -17.651  0.00  0.00    -0.264 N 
ATOM      4  N   UNL     1      32.671 -21.090 -19.187  0.00  0.00    -0.222 NA
ATOM      5  C   UNL     1      31.924 -23.073 -17.077  0.00  0.00    +0.227 C 
ATOM      6  C   UNL     1      33.486 -21.937 -18.637  0.00  0.00    +0.166 C 
ATOM      7  C   UNL     1      34.724 -20.664 -20.224  0.00  0.00    +0.077 C 
ATOM      8  C   UNL     1      33.386 -20.349 -20.108  0.00  0.00    +0.114 C 
ATOM      9  H   UNL     1      33.907 -23.452 -17.333  0.00  0.00    +0.157 HD
ENDROOT
BRANCH   5  11
ATOM     10  N   UNL     1      30.625 -23.340 -13.587  0.00  0.00    +0.384 N 
ATOM     11  C   UNL     1      31.973 -24.174 -16.055  0.00  0.00    +0.073 C 
ATOM     12  C   UNL     1      32.741 -23.727 -14.809  0.00  0.00    -0.014 C 
ATOM     13  C   UNL     1      30.562 -24.641 -15.690  0.00  0.00    -0.014 C 
ATOM     14  C   UNL     1      31.925 -22.769 -13.938  0.00  0.00    -0.081 C 
ATOM     15  C   UNL     1      29.839 -23.646 -14.782  0.00  0.00    -0.081 C 
ATOM     16  H   UNL     1      30.112 -22.670 -13.014  0.00  0.00    -0.085 HD
ATOM     17  H   UNL     1      30.781 -24.207 -13.074  0.00  0.00    -0.085 HD
ENDBRANCH   5  11
BRANCH   7  18
ATOM     18  S   UNL     1      35.894 -19.921 -21.288  0.00  0.00    -0.096 S 
BRANCH  18  19
ATOM     19  C   UNL     1      34.865 -19.593 -22.743  0.00  0.00    +0.148 C 
BRANCH  19  24
ATOM     20  O   UNL     1      34.150 -17.425 -21.993  0.00  0.00    -0.442 OA
ATOM     21  N   UNL     1      35.104 -17.460 -24.044  0.00  0.00    -0.210 NA
ATOM     22  C   UNL     1      34.157 -16.153 -22.479  0.00  0.00    +0.143 C 
ATOM     23  C   UNL     1      34.737 -16.179 -23.723  0.00  0.00    +0.135 C 
ATOM     24  C   UNL     1      34.731 -18.119 -22.993  0.00  0.00    +0.217 C 
BRANCH  22  25
ATOM     25  C   UNL     1      33.583 -15.107 -21.627  0.00  0.00    +0.053 C 
ATOM     26  C   UNL     1      33.120 -13.845 -22.445  0.00  0.00    +0.008 C 
ATOM     27  C   UNL     1      34.596 -14.587 -20.541  0.00  0.00    +0.008 C 
ATOM     28  C   UNL     1      32.304 -15.516 -20.795  0.00  0.00    +0.008 C 
ENDBRANCH  22  25
ENDBRANCH  19  24
ENDBRANCH  18  19
ENDBRANCH   7  18
TORSDOF 5
ENDMDL
MODEL 9
REMARK VINA RESULT:      -8.7      6.877     12.956
REMARK  Name = 3025986
REMARK  5 active torsions:
REMARK  status: ('A' for Active; 'I' for Inactive)
REMARK    1  A    between atoms: C_5  and  C_11
REMARK    2  A    between atoms: C_7  and  S_18
REMARK    3  A    between atoms: S_18  and  C_19
REMARK    4  A    between atoms: C_19  and  C_24
REMARK    5  A    between atoms: C_22  and  C_25
REMARK                            x       y       z     vdW  Elec       q    Type
REMARK                         _______ _______ _______ _____ _____    ______ ____
ROOT
ATOM      1  S   UNL     1      35.143 -21.802 -19.477  0.00  0.00    -0.045 S 
ATOM      2  O   UNL     1      33.254 -18.062 -21.495  0.00  0.00    -0.275 OA
ATOM      3  N   UNL     1      34.928 -19.613 -20.902  0.00  0.00    -0.264 N 
ATOM      4  N   UNL     1      32.961 -20.451 -19.791  0.00  0.00    -0.222 NA
ATOM      5  C   UNL     1      34.404 -18.486 -21.523  0.00  0.00    +0.227 C 
ATOM      6  C   UNL     1      34.221 -20.510 -20.098  0.00  0.00    +0.166 C 
ATOM      7  C   UNL     1      33.726 -22.373 -18.698  0.00  0.00    +0.077 C 
ATOM      8  C   UNL     1      32.671 -21.531 -18.980  0.00  0.00    +0.114 C 
ATOM      9  H   UNL     1      35.886 -19.795 -21.042  0.00  0.00    +0.157 HD
ENDROOT
BRANCH   5  11
ATOM     10  N   UNL     1      34.377 -16.762 -24.835  0.00  0.00    +0.384 N 
ATOM     11  C   UNL     1      35.467 -17.763 -22.302  0.00  0.00    +0.073 C 
ATOM     12  C   UNL     1      35.728 -18.456 -23.641  0.00  0.00    -0.014 C 
ATOM     13  C   UNL     1      35.085 -16.296 -22.511  0.00  0.00    -0.014 C 
ATOM     14  C   UNL     1      34.614 -18.195 -24.657  0.00  0.00    -0.081 C 
ATOM     15  C   UNL     1      33.999 -16.125 -23.574  0.00  0.00    -0.081 C 
ATOM     16  H   UNL     1      33.625 -16.632 -25.511  0.00  0.00    -0.085 HD
ATOM     17  H   UNL     1      35.240 -16.332 -25.167  0.00  0.00    -0.085 HD
ENDBRANCH   5  11
BRANCH   7  18
ATOM     18  S   UNL     1      33.692 -23.814 -17.712  0.00  0.00    -0.096 S 
BRANCH  18  19
ATOM     19  C   UNL     1      34.119 -23.123 -16.092  0.00  0.00    +0.148 C 
BRANCH  19  24
ATOM     20  O   UNL     1      35.961 -24.374 -15.188  0.00  0.00    -0.442 OA
ATOM     21  N   UNL     1      36.519 -22.392 -16.123  0.00  0.00    -0.210 NA
ATOM     22  C   UNL     1      37.308 -24.217 -15.074  0.00  0.00    +0.143 C 
ATOM     23  C   UNL     1      37.643 -23.013 -15.643  0.00  0.00    +0.135 C 
ATOM     24  C   UNL     1      35.591 -23.242 -15.821  0.00  0.00    +0.217 C 
BRANCH  22  25
ATOM     25  C   UNL     1      38.055 -25.292 -14.414  0.00  0.00    +0.053 C 
ATOM     26  C   UNL     1      39.565 -25.341 -14.855  0.00  0.00    +0.008 C 
ATOM     27  C   UNL     1      37.458 -26.717 -14.713  0.00  0.00    +0.008 C 
ATOM     28  C   UNL     1      38.118 -25.225 -12.837  0.00  0.00    +0.008 C 
ENDBRANCH  22  25
ENDBRANCH  19  24
ENDBRANCH  18  19
ENDBRANCH   7  18
TORSDOF 5
ENDMDL
