MODEL 1
REMARK VINA RESULT:      -7.2      0.000      0.000
REMARK  Name = 16739648
REMARK  4 active torsions:
REMARK  status: ('A' for Active; 'I' for Inactive)
REMARK    1  A    between atoms: C_8  and  O_20
REMARK    2  A    between atoms: C_8  and  C_26
REMARK    3  A    between atoms: C_10  and  O_22
REMARK    4  A    between atoms: C_19  and  O_24
REMARK                            x       y       z     vdW  Elec       q    Type
REMARK                         _______ _______ _______ _____ _____    ______ ____
ROOT
ATOM      1  C   UNL     1      32.762  -3.271 -26.226  0.00  0.00    +0.006 C 
ATOM      2  C   UNL     1      33.370  -4.020 -27.433  0.00  0.00    +0.033 C 
ATOM      3  C   UNL     1      32.054  -4.202 -25.220  0.00  0.00    +0.032 C 
ATOM      4  C   UNL     1      33.068  -5.276 -24.718  0.00  0.00    +0.006 C 
ATOM      5  C   UNL     1      32.403  -6.287 -23.699  0.00  0.00    +0.015 C 
ATOM      6  C   UNL     1      34.429  -5.000 -26.900  0.00  0.00    +0.003 C 
ATOM      7  C   UNL     1      33.831  -5.977 -25.875  0.00  0.00    +0.001 C 
ATOM      8  C   UNL     1      33.895  -2.826 -28.285  0.00  0.00    +0.142 C 
ATOM      9  C   UNL     1      31.972  -2.138 -26.879  0.00  0.00    +0.004 C 
ATOM     10  C   UNL     1      31.485  -3.412 -24.023  0.00  0.00    +0.132 C 
ATOM     11  C   UNL     1      32.753  -1.787 -28.161  0.00  0.00    +0.039 C 
ATOM     12  C   UNL     1      31.570  -5.531 -22.658  0.00  0.00    -0.044 C 
ATOM     13  C   UNL     1      32.319  -4.823 -28.255  0.00  0.00    +0.003 C 
ATOM     14  C   UNL     1      33.540  -7.073 -22.978  0.00  0.00    +0.006 C 
ATOM     15  C   UNL     1      31.194  -4.252 -22.817  0.00  0.00    -0.006 C 
ATOM     16  C   UNL     1      31.469  -7.286 -24.422  0.00  0.00    +0.004 C 
ATOM     17  C   UNL     1      31.166  -6.285 -21.412  0.00  0.00    +0.051 C 
ATOM     18  C   UNL     1      33.082  -7.878 -21.763  0.00  0.00    +0.030 C 
ATOM     19  C   UNL     1      32.352  -6.990 -20.762  0.00  0.00    +0.115 C 
ENDROOT
BRANCH   8  20
ATOM     20  O   UNL     1      34.082  -3.199 -29.644  0.00  0.00    -0.375 OA
ATOM     21  H   UNL     1      33.221  -3.386 -30.050  0.00  0.00    +0.211 HD
ENDBRANCH   8  20
BRANCH  10  22
ATOM     22  O   UNL     1      30.249  -2.803 -24.402  0.00  0.00    -0.380 OA
ATOM     23  H   UNL     1      29.583  -2.972 -23.718  0.00  0.00    +0.211 HD
ENDBRANCH  10  22
BRANCH  19  24
ATOM     24  O   UNL     1      31.896  -7.780 -19.669  0.00  0.00    -0.384 OA
ATOM     25  H   UNL     1      32.647  -8.005 -19.097  0.00  0.00    +0.210 HD
ENDBRANCH  19  24
BRANCH   8  26
ATOM     26  C   UNL     1      35.159  -2.251 -27.784  0.00  0.00    -0.053 C 
ATOM     27  C   UNL     1      36.188  -1.786 -27.377  0.00  0.00    -0.012 C 
ENDBRANCH   8  26
TORSDOF 4
ENDMDL
MODEL 2
REMARK VINA RESULT:      -6.6     20.132     22.643
REMARK  Name = 16739648
REMARK  4 active torsions:
REMARK  status: ('A' for Active; 'I' for Inactive)
REMARK    1  A    between atoms: C_8  and  O_20
REMARK    2  A    between atoms: C_8  and  C_26
REMARK    3  A    between atoms: C_10  and  O_22
REMARK    4  A    between atoms: C_19  and  O_24
REMARK                            x       y       z     vdW  Elec       q    Type
REMARK                         _______ _______ _______ _____ _____    ______ ____
ROOT
ATOM      1  C   UNL     1      32.752 -23.607 -15.695  0.00  0.00    +0.006 C 
ATOM      2  C   UNL     1      31.769 -23.437 -14.516  0.00  0.00    +0.033 C 
ATOM      3  C   UNL     1      34.232 -23.454 -15.285  0.00  0.00    +0.032 C 
ATOM      4  C   UNL     1      34.562 -24.491 -14.168  0.00  0.00    +0.006 C 
ATOM      5  C   UNL     1      36.061 -24.375 -13.678  0.00  0.00    +0.015 C 
ATOM      6  C   UNL     1      32.069 -24.537 -13.484  0.00  0.00    +0.003 C 
ATOM      7  C   UNL     1      33.529 -24.483 -13.009  0.00  0.00    +0.001 C 
ATOM      8  C   UNL     1      30.402 -23.535 -15.258  0.00  0.00    +0.142 C 
ATOM      9  C   UNL     1      32.175 -22.685 -16.769  0.00  0.00    +0.004 C 
ATOM     10  C   UNL     1      35.176 -23.654 -16.490  0.00  0.00    +0.132 C 
ATOM     11  C   UNL     1      30.650 -22.711 -16.546  0.00  0.00    +0.039 C 
ATOM     12  C   UNL     1      37.012 -24.268 -14.874  0.00  0.00    -0.044 C 
ATOM     13  C   UNL     1      31.879 -22.052 -13.813  0.00  0.00    +0.003 C 
ATOM     14  C   UNL     1      36.408 -25.654 -12.857  0.00  0.00    +0.006 C 
ATOM     15  C   UNL     1      36.591 -23.967 -16.114  0.00  0.00    -0.006 C 
ATOM     16  C   UNL     1      36.270 -23.125 -12.791  0.00  0.00    +0.004 C 
ATOM     17  C   UNL     1      38.482 -24.511 -14.618  0.00  0.00    +0.051 C 
ATOM     18  C   UNL     1      37.895 -25.832 -12.558  0.00  0.00    +0.030 C 
ATOM     19  C   UNL     1      38.719 -25.802 -13.841  0.00  0.00    +0.115 C 
ENDROOT
BRANCH   8  20
ATOM     20  O   UNL     1      29.352 -22.958 -14.494  0.00  0.00    -0.375 OA
ATOM     21  H   UNL     1      28.727 -23.652 -14.227  0.00  0.00    +0.211 HD
ENDBRANCH   8  20
BRANCH  10  22
ATOM     22  O   UNL     1      35.216 -22.455 -17.265  0.00  0.00    -0.380 OA
ATOM     23  H   UNL     1      34.608 -22.537 -18.016  0.00  0.00    +0.211 HD
ENDBRANCH  10  22
BRANCH  19  24
ATOM     24  O   UNL     1      40.101 -25.920 -13.521  0.00  0.00    -0.384 OA
ATOM     25  H   UNL     1      40.632 -25.528 -14.232  0.00  0.00    +0.210 HD
ENDBRANCH  19  24
BRANCH   8  26
ATOM     26  C   UNL     1      30.016 -24.917 -15.608  0.00  0.00    -0.053 C 
ATOM     27  C   UNL     1      29.700 -26.040 -15.891  0.00  0.00    -0.012 C 
ENDBRANCH   8  26
TORSDOF 4
ENDMDL
MODEL 3
REMARK VINA RESULT:      -6.4     19.961     22.319
REMARK  Name = 16739648
REMARK  4 active torsions:
REMARK  status: ('A' for Active; 'I' for Inactive)
REMARK    1  A    between atoms: C_8  and  O_20
REMARK    2  A    between atoms: C_8  and  C_26
REMARK    3  A    between atoms: C_10  and  O_22
REMARK    4  A    between atoms: C_19  and  O_24
REMARK                            x       y       z     vdW  Elec       q    Type
REMARK                         _______ _______ _______ _____ _____    ______ ____
ROOT
ATOM      1  C   UNL     1      35.614 -23.782 -14.907  0.00  0.00    +0.006 C 
ATOM      2  C   UNL     1      35.869 -24.838 -13.807  0.00  0.00    +0.033 C 
ATOM      3  C   UNL     1      34.218 -23.897 -15.554  0.00  0.00    +0.032 C 
ATOM      4  C   UNL     1      33.129 -23.777 -14.443  0.00  0.00    +0.006 C 
ATOM      5  C   UNL     1      31.667 -23.912 -15.031  0.00  0.00    +0.015 C 
ATOM      6  C   UNL     1      34.833 -24.623 -12.691  0.00  0.00    +0.003 C 
ATOM      7  C   UNL     1      33.396 -24.708 -13.229  0.00  0.00    +0.001 C 
ATOM      8  C   UNL     1      37.353 -24.532 -13.447  0.00  0.00    +0.142 C 
ATOM      9  C   UNL     1      36.857 -23.887 -15.789  0.00  0.00    +0.004 C 
ATOM     10  C   UNL     1      34.001 -22.809 -16.627  0.00  0.00    +0.132 C 
ATOM     11  C   UNL     1      38.000 -24.281 -14.831  0.00  0.00    +0.039 C 
ATOM     12  C   UNL     1      31.514 -23.058 -16.294  0.00  0.00    -0.044 C 
ATOM     13  C   UNL     1      35.751 -26.304 -14.320  0.00  0.00    +0.003 C 
ATOM     14  C   UNL     1      30.657 -23.420 -13.950  0.00  0.00    +0.006 C 
ATOM     15  C   UNL     1      32.565 -22.565 -16.970  0.00  0.00    -0.006 C 
ATOM     16  C   UNL     1      31.342 -25.378 -15.406  0.00  0.00    +0.004 C 
ATOM     17  C   UNL     1      30.109 -22.780 -16.779  0.00  0.00    +0.051 C 
ATOM     18  C   UNL     1      29.232 -23.214 -14.461  0.00  0.00    +0.030 C 
ATOM     19  C   UNL     1      29.210 -22.270 -15.657  0.00  0.00    +0.115 C 
ENDROOT
BRANCH   8  20
ATOM     20  O   UNL     1      37.972 -25.639 -12.803  0.00  0.00    -0.375 OA
ATOM     21  H   UNL     1      37.289 -26.253 -12.489  0.00  0.00    +0.211 HD
ENDBRANCH   8  20
BRANCH  10  22
ATOM     22  O   UNL     1      34.649 -23.203 -17.838  0.00  0.00    -0.380 OA
ATOM     23  H   UNL     1      35.344 -23.848 -17.636  0.00  0.00    +0.211 HD
ENDBRANCH  10  22
BRANCH  19  24
ATOM     24  O   UNL     1      27.876 -22.141 -16.137  0.00  0.00    -0.384 OA
ATOM     25  H   UNL     1      27.443 -21.396 -15.692  0.00  0.00    +0.210 HD
ENDBRANCH  19  24
BRANCH   8  26
ATOM     26  C   UNL     1      37.520 -23.344 -12.586  0.00  0.00    -0.053 C 
ATOM     27  C   UNL     1      37.657 -22.379 -11.886  0.00  0.00    -0.012 C 
ENDBRANCH   8  26
TORSDOF 4
ENDMDL
MODEL 4
REMARK VINA RESULT:      -6.0     17.368     21.970
REMARK  Name = 16739648
REMARK  4 active torsions:
REMARK  status: ('A' for Active; 'I' for Inactive)
REMARK    1  A    between atoms: C_8  and  O_20
REMARK    2  A    between atoms: C_8  and  C_26
REMARK    3  A    between atoms: C_10  and  O_22
REMARK    4  A    between atoms: C_19  and  O_24
REMARK                            x       y       z     vdW  Elec       q    Type
REMARK                         _______ _______ _______ _____ _____    ______ ____
ROOT
ATOM      1  C   UNL     1      36.763 -23.784 -14.690  0.00  0.00    +0.006 C 
ATOM      2  C   UNL     1      36.036 -24.972 -14.022  0.00  0.00    +0.033 C 
ATOM      3  C   UNL     1      36.296 -23.516 -16.137  0.00  0.00    +0.032 C 
ATOM      4  C   UNL     1      34.757 -23.262 -16.138  0.00  0.00    +0.006 C 
ATOM      5  C   UNL     1      34.202 -23.006 -17.596  0.00  0.00    +0.015 C 
ATOM      6  C   UNL     1      34.536 -24.638 -13.960  0.00  0.00    +0.003 C 
ATOM      7  C   UNL     1      33.964 -24.344 -15.355  0.00  0.00    +0.001 C 
ATOM      8  C   UNL     1      36.788 -25.046 -12.659  0.00  0.00    +0.142 C 
ATOM      9  C   UNL     1      38.238 -24.081 -14.423  0.00  0.00    +0.004 C 
ATOM     10  C   UNL     1      37.033 -22.308 -16.753  0.00  0.00    +0.132 C 
ATOM     11  C   UNL     1      38.264 -24.814 -13.068  0.00  0.00    +0.039 C 
ATOM     12  C   UNL     1      35.102 -22.020 -18.349  0.00  0.00    -0.044 C 
ATOM     13  C   UNL     1      36.215 -26.317 -14.787  0.00  0.00    +0.003 C 
ATOM     14  C   UNL     1      32.768 -22.405 -17.475  0.00  0.00    +0.006 C 
ATOM     15  C   UNL     1      36.344 -21.713 -17.942  0.00  0.00    -0.006 C 
ATOM     16  C   UNL     1      34.141 -24.316 -18.417  0.00  0.00    +0.004 C 
ATOM     17  C   UNL     1      34.542 -21.385 -19.602  0.00  0.00    +0.051 C 
ATOM     18  C   UNL     1      32.208 -21.834 -18.776  0.00  0.00    +0.030 C 
ATOM     19  C   UNL     1      33.153 -20.797 -19.371  0.00  0.00    +0.115 C 
ENDROOT
BRANCH   8  20
ATOM     20  O   UNL     1      36.637 -26.322 -12.050  0.00  0.00    -0.375 OA
ATOM     21  H   UNL     1      37.475 -26.807 -12.103  0.00  0.00    +0.211 HD
ENDBRANCH   8  20
BRANCH  10  22
ATOM     22  O   UNL     1      38.328 -22.718 -17.195  0.00  0.00    -0.380 OA
ATOM     23  H   UNL     1      38.554 -23.567 -16.785  0.00  0.00    +0.211 HD
ENDBRANCH  10  22
BRANCH  19  24
ATOM     24  O   UNL     1      32.625 -20.324 -20.605  0.00  0.00    -0.384 OA
ATOM     25  H   UNL     1      33.123 -20.713 -21.341  0.00  0.00    +0.210 HD
ENDBRANCH  19  24
BRANCH   8  26
ATOM     26  C   UNL     1      36.362 -24.017 -11.691  0.00  0.00    -0.053 C 
ATOM     27  C   UNL     1      36.016 -23.181 -10.902  0.00  0.00    -0.012 C 
ENDBRANCH   8  26
TORSDOF 4
ENDMDL
MODEL 5
REMARK VINA RESULT:      -5.4     15.677     20.510
REMARK  Name = 16739648
REMARK  4 active torsions:
REMARK  status: ('A' for Active; 'I' for Inactive)
REMARK    1  A    between atoms: C_8  and  O_20
REMARK    2  A    between atoms: C_8  and  C_26
REMARK    3  A    between atoms: C_10  and  O_22
REMARK    4  A    between atoms: C_19  and  O_24
REMARK                            x       y       z     vdW  Elec       q    Type
REMARK                         _______ _______ _______ _____ _____    ______ ____
ROOT
ATOM      1  C   UNL     1      34.864 -23.002 -15.627  0.00  0.00    +0.006 C 
ATOM      2  C   UNL     1      33.698 -24.005 -15.781  0.00  0.00    +0.033 C 
ATOM      3  C   UNL     1      35.511 -22.603 -16.970  0.00  0.00    +0.032 C 
ATOM      4  C   UNL     1      34.416 -22.002 -17.904  0.00  0.00    +0.006 C 
ATOM      5  C   UNL     1      35.003 -21.593 -19.315  0.00  0.00    +0.015 C 
ATOM      6  C   UNL     1      32.604 -23.335 -16.629  0.00  0.00    +0.003 C 
ATOM      7  C   UNL     1      33.143 -22.887 -17.996  0.00  0.00    +0.001 C 
ATOM      8  C   UNL     1      33.349 -24.279 -14.287  0.00  0.00    +0.142 C 
ATOM      9  C   UNL     1      35.731 -23.637 -14.539  0.00  0.00    +0.004 C 
ATOM     10  C   UNL     1      36.652 -21.585 -16.767  0.00  0.00    +0.132 C 
ATOM     11  C   UNL     1      34.744 -24.385 -13.621  0.00  0.00    +0.039 C 
ATOM     12  C   UNL     1      36.318 -20.825 -19.148  0.00  0.00    -0.044 C 
ATOM     13  C   UNL     1      34.116 -25.338 -16.469  0.00  0.00    +0.003 C 
ATOM     14  C   UNL     1      33.961 -20.680 -20.032  0.00  0.00    +0.006 C 
ATOM     15  C   UNL     1      37.019 -20.822 -18.002  0.00  0.00    -0.006 C 
ATOM     16  C   UNL     1      35.284 -22.835 -20.192  0.00  0.00    +0.004 C 
ATOM     17  C   UNL     1      36.828 -20.052 -20.343  0.00  0.00    +0.051 C 
ATOM     18  C   UNL     1      34.492 -19.968 -21.274  0.00  0.00    +0.030 C 
ATOM     19  C   UNL     1      35.746 -19.165 -20.951  0.00  0.00    +0.115 C 
ENDROOT
BRANCH   8  20
ATOM     20  O   UNL     1      32.633 -25.498 -14.135  0.00  0.00    -0.375 OA
ATOM     21  H   UNL     1      31.755 -25.410 -14.539  0.00  0.00    +0.211 HD
ENDBRANCH   8  20
BRANCH  10  22
ATOM     22  O   UNL     1      37.831 -22.273 -16.348  0.00  0.00    -0.380 OA
ATOM     23  H   UNL     1      38.612 -21.828 -16.713  0.00  0.00    +0.211 HD
ENDBRANCH  10  22
BRANCH  19  24
ATOM     24  O   UNL     1      36.241 -18.556 -22.139  0.00  0.00    -0.384 OA
ATOM     25  H   UNL     1      36.090 -19.149 -22.893  0.00  0.00    +0.210 HD
ENDBRANCH  19  24
BRANCH   8  26
ATOM     26  C   UNL     1      32.565 -23.200 -13.654  0.00  0.00    -0.053 C 
ATOM     27  C   UNL     1      31.927 -22.323 -13.140  0.00  0.00    -0.012 C 
ENDBRANCH   8  26
TORSDOF 4
ENDMDL
MODEL 6
REMARK VINA RESULT:      -5.1      4.624      8.719
REMARK  Name = 16739648
REMARK  4 active torsions:
REMARK  status: ('A' for Active; 'I' for Inactive)
REMARK    1  A    between atoms: C_8  and  O_20
REMARK    2  A    between atoms: C_8  and  C_26
REMARK    3  A    between atoms: C_10  and  O_22
REMARK    4  A    between atoms: C_19  and  O_24
REMARK                            x       y       z     vdW  Elec       q    Type
REMARK                         _______ _______ _______ _____ _____    ______ ____
ROOT
ATOM      1  C   UNL     1      33.697 -12.206 -23.171  0.00  0.00    +0.006 C 
ATOM      2  C   UNL     1      32.561 -13.132 -22.681  0.00  0.00    +0.033 C 
ATOM      3  C   UNL     1      33.214 -10.790 -23.548  0.00  0.00    +0.032 C 
ATOM      4  C   UNL     1      32.504 -10.149 -22.316  0.00  0.00    +0.006 C 
ATOM      5  C   UNL     1      31.957  -8.700 -22.637  0.00  0.00    +0.015 C 
ATOM      6  C   UNL     1      31.954 -12.509 -21.413  0.00  0.00    +0.003 C 
ATOM      7  C   UNL     1      31.443 -11.083 -21.673  0.00  0.00    +0.001 C 
ATOM      8  C   UNL     1      33.335 -14.471 -22.494  0.00  0.00    +0.142 C 
ATOM      9  C   UNL     1      34.413 -13.055 -24.221  0.00  0.00    +0.004 C 
ATOM     10  C   UNL     1      34.385  -9.897 -24.008  0.00  0.00    +0.132 C 
ATOM     11  C   UNL     1      34.260 -14.511 -23.737  0.00  0.00    +0.039 C 
ATOM     12  C   UNL     1      33.016  -7.876 -23.376  0.00  0.00    -0.044 C 
ATOM     13  C   UNL     1      31.429 -13.329 -23.731  0.00  0.00    +0.003 C 
ATOM     14  C   UNL     1      31.606  -7.999 -21.289  0.00  0.00    +0.006 C 
ATOM     15  C   UNL     1      34.093  -8.429 -23.957  0.00  0.00    -0.006 C 
ATOM     16  C   UNL     1      30.693  -8.758 -23.527  0.00  0.00    +0.004 C 
ATOM     17  C   UNL     1      32.812  -6.379 -23.441  0.00  0.00    +0.051 C 
ATOM     18  C   UNL     1      31.339  -6.500 -21.404  0.00  0.00    +0.030 C 
ATOM     19  C   UNL     1      32.510  -5.785 -22.070  0.00  0.00    +0.115 C 
ENDROOT
BRANCH   8  20
ATOM     20  O   UNL     1      32.454 -15.586 -22.496  0.00  0.00    -0.375 OA
ATOM     21  H   UNL     1      32.969 -16.406 -22.430  0.00  0.00    +0.211 HD
ENDBRANCH   8  20
BRANCH  10  22
ATOM     22  O   UNL     1      34.707 -10.201 -25.366  0.00  0.00    -0.380 OA
ATOM     23  H   UNL     1      33.900 -10.459 -25.839  0.00  0.00    +0.211 HD
ENDBRANCH  10  22
BRANCH  19  24
ATOM     24  O   UNL     1      32.206  -4.401 -22.206  0.00  0.00    -0.384 OA
ATOM     25  H   UNL     1      31.243  -4.282 -22.239  0.00  0.00    +0.210 HD
ENDBRANCH  19  24
BRANCH   8  26
ATOM     26  C   UNL     1      34.143 -14.521 -21.259  0.00  0.00    -0.053 C 
ATOM     27  C   UNL     1      34.800 -14.563 -20.256  0.00  0.00    -0.012 C 
ENDBRANCH   8  26
TORSDOF 4
ENDMDL
MODEL 7
REMARK VINA RESULT:      -5.0      4.571      8.325
REMARK  Name = 16739648
REMARK  4 active torsions:
REMARK  status: ('A' for Active; 'I' for Inactive)
REMARK    1  A    between atoms: C_8  and  O_20
REMARK    2  A    between atoms: C_8  and  C_26
REMARK    3  A    between atoms: C_10  and  O_22
REMARK    4  A    between atoms: C_19  and  O_24
REMARK                            x       y       z     vdW  Elec       q    Type
REMARK                         _______ _______ _______ _____ _____    ______ ____
ROOT
ATOM      1  C   UNL     1      32.467 -12.282 -23.247  0.00  0.00    +0.006 C 
ATOM      2  C   UNL     1      33.893 -12.748 -23.615  0.00  0.00    +0.033 C 
ATOM      3  C   UNL     1      32.404 -10.816 -22.771  0.00  0.00    +0.032 C 
ATOM      4  C   UNL     1      32.992  -9.893 -23.884  0.00  0.00    +0.006 C 
ATOM      5  C   UNL     1      32.984  -8.371 -23.454  0.00  0.00    +0.015 C 
ATOM      6  C   UNL     1      34.395 -11.873 -24.776  0.00  0.00    +0.003 C 
ATOM      7  C   UNL     1      34.368 -10.381 -24.412  0.00  0.00    +0.001 C 
ATOM      8  C   UNL     1      33.637 -14.251 -23.937  0.00  0.00    +0.142 C 
ATOM      9  C   UNL     1      31.964 -13.390 -22.322  0.00  0.00    +0.004 C 
ATOM     10  C   UNL     1      30.959 -10.390 -22.439  0.00  0.00    +0.132 C 
ATOM     11  C   UNL     1      32.647 -14.678 -22.825  0.00  0.00    +0.039 C 
ATOM     12  C   UNL     1      31.635  -7.993 -22.833  0.00  0.00    -0.044 C 
ATOM     13  C   UNL     1      34.903 -12.636 -22.434  0.00  0.00    +0.003 C 
ATOM     14  C   UNL     1      33.228  -7.502 -24.726  0.00  0.00    +0.006 C 
ATOM     15  C   UNL     1      30.748  -8.908 -22.411  0.00  0.00    -0.006 C 
ATOM     16  C   UNL     1      34.088  -8.073 -22.411  0.00  0.00    +0.004 C 
ATOM     17  C   UNL     1      31.320  -6.521 -22.699  0.00  0.00    +0.051 C 
ATOM     18  C   UNL     1      32.964  -6.010 -24.534  0.00  0.00    +0.030 C 
ATOM     19  C   UNL     1      31.556  -5.766 -24.003  0.00  0.00    +0.115 C 
ENDROOT
BRANCH   8  20
ATOM     20  O   UNL     1      34.834 -15.013 -23.855  0.00  0.00    -0.375 OA
ATOM     21  H   UNL     1      35.504 -14.628 -24.443  0.00  0.00    +0.211 HD
ENDBRANCH   8  20
BRANCH  10  22
ATOM     22  O   UNL     1      30.608 -10.877 -21.143  0.00  0.00    -0.380 OA
ATOM     23  H   UNL     1      30.502 -10.129 -20.535  0.00  0.00    +0.211 HD
ENDBRANCH  10  22
BRANCH  19  24
ATOM     24  O   UNL     1      31.363  -4.372 -23.790  0.00  0.00    -0.384 OA
ATOM     25  H   UNL     1      30.428  -4.151 -23.923  0.00  0.00    +0.210 HD
ENDBRANCH  19  24
BRANCH   8  26
ATOM     26  C   UNL     1      33.035 -14.477 -25.266  0.00  0.00    -0.053 C 
ATOM     27  C   UNL     1      32.547 -14.660 -26.347  0.00  0.00    -0.012 C 
ENDBRANCH   8  26
TORSDOF 4
ENDMDL
MODEL 8
REMARK VINA RESULT:      -5.0      3.411      5.947
REMARK  Name = 16739648
REMARK  4 active torsions:
REMARK  status: ('A' for Active; 'I' for Inactive)
REMARK    1  A    between atoms: C_8  and  O_20
REMARK    2  A    between atoms: C_8  and  C_26
REMARK    3  A    between atoms: C_10  and  O_22
REMARK    4  A    between atoms: C_19  and  O_24
REMARK                            x       y       z     vdW  Elec       q    Type
REMARK                         _______ _______ _______ _____ _____    ______ ____
ROOT
ATOM      1  C   UNL     1      32.354  -7.501 -22.380  0.00  0.00    +0.006 C 
ATOM      2  C   UNL     1      31.726  -7.354 -23.784  0.00  0.00    +0.033 C 
ATOM      3  C   UNL     1      31.864  -8.750 -21.617  0.00  0.00    +0.032 C 
ATOM      4  C   UNL     1      32.170 -10.020 -22.468  0.00  0.00    +0.006 C 
ATOM      5  C   UNL     1      31.669 -11.342 -21.758  0.00  0.00    +0.015 C 
ATOM      6  C   UNL     1      32.131  -8.582 -24.617  0.00  0.00    +0.003 C 
ATOM      7  C   UNL     1      31.696  -9.892 -23.942  0.00  0.00    +0.001 C 
ATOM      8  C   UNL     1      32.322  -5.985 -24.229  0.00  0.00    +0.142 C 
ATOM      9  C   UNL     1      32.153  -6.119 -21.759  0.00  0.00    +0.004 C 
ATOM     10  C   UNL     1      32.535  -8.866 -20.232  0.00  0.00    +0.132 C 
ATOM     11  C   UNL     1      32.224  -5.131 -22.940  0.00  0.00    +0.039 C 
ATOM     12  C   UNL     1      32.070 -11.344 -20.280  0.00  0.00    -0.044 C 
ATOM     13  C   UNL     1      30.172  -7.260 -23.759  0.00  0.00    +0.003 C 
ATOM     14  C   UNL     1      32.328 -12.561 -22.473  0.00  0.00    +0.006 C 
ATOM     15  C   UNL     1      32.470 -10.236 -19.633  0.00  0.00    -0.006 C 
ATOM     16  C   UNL     1      30.129 -11.475 -21.833  0.00  0.00    +0.004 C 
ATOM     17  C   UNL     1      31.999 -12.661 -19.541  0.00  0.00    +0.051 C 
ATOM     18  C   UNL     1      32.177 -13.888 -21.732  0.00  0.00    +0.030 C 
ATOM     19  C   UNL     1      32.701 -13.780 -20.304  0.00  0.00    +0.115 C 
ENDROOT
BRANCH   8  20
ATOM     20  O   UNL     1      31.556  -5.398 -25.273  0.00  0.00    -0.375 OA
ATOM     21  H   UNL     1      31.300  -6.083 -25.910  0.00  0.00    +0.211 HD
ENDBRANCH   8  20
BRANCH  10  22
ATOM     22  O   UNL     1      31.882  -7.988 -19.314  0.00  0.00    -0.380 OA
ATOM     23  H   UNL     1      32.416  -7.187 -19.198  0.00  0.00    +0.211 HD
ENDBRANCH  10  22
BRANCH  19  24
ATOM     24  O   UNL     1      32.499 -15.017 -19.629  0.00  0.00    -0.384 OA
ATOM     25  H   UNL     1      32.238 -15.697 -20.270  0.00  0.00    +0.210 HD
ENDBRANCH  19  24
BRANCH   8  26
ATOM     26  C   UNL     1      33.727  -6.068 -24.677  0.00  0.00    -0.053 C 
ATOM     27  C   UNL     1      34.868  -6.137 -25.041  0.00  0.00    -0.012 C 
ENDBRANCH   8  26
TORSDOF 4
ENDMDL
MODEL 9
REMARK VINA RESULT:      -4.2      5.206      7.874
REMARK  Name = 16739648
REMARK  4 active torsions:
REMARK  status: ('A' for Active; 'I' for Inactive)
REMARK    1  A    between atoms: C_8  and  O_20
REMARK    2  A    between atoms: C_8  and  C_26
REMARK    3  A    between atoms: C_10  and  O_22
REMARK    4  A    between atoms: C_19  and  O_24
REMARK                            x       y       z     vdW  Elec       q    Type
REMARK                         _______ _______ _______ _____ _____    ______ ____
ROOT
ATOM      1  C   UNL     1      32.564  -9.847 -22.364  0.00  0.00    +0.006 C 
ATOM      2  C   UNL     1      32.719  -9.376 -23.827  0.00  0.00    +0.033 C 
ATOM      3  C   UNL     1      32.273 -11.357 -22.233  0.00  0.00    +0.032 C 
ATOM      4  C   UNL     1      33.416 -12.159 -22.929  0.00  0.00    +0.006 C 
ATOM      5  C   UNL     1      33.170 -13.720 -22.858  0.00  0.00    +0.015 C 
ATOM      6  C   UNL     1      33.913 -10.123 -24.444  0.00  0.00    +0.003 C 
ATOM      7  C   UNL     1      33.732 -11.646 -24.361  0.00  0.00    +0.001 C 
ATOM      8  C   UNL     1      32.889  -7.841 -23.624  0.00  0.00    +0.142 C 
ATOM      9  C   UNL     1      31.576  -8.841 -21.774  0.00  0.00    +0.004 C 
ATOM     10  C   UNL     1      32.150 -11.783 -20.755  0.00  0.00    +0.132 C 
ATOM     11  C   UNL     1      31.848  -7.521 -22.523  0.00  0.00    +0.039 C 
ATOM     12  C   UNL     1      32.747 -14.134 -21.445  0.00  0.00    -0.044 C 
ATOM     13  C   UNL     1      31.458  -9.647 -24.700  0.00  0.00    +0.003 C 
ATOM     14  C   UNL     1      34.501 -14.442 -23.231  0.00  0.00    +0.006 C 
ATOM     15  C   UNL     1      32.318 -13.253 -20.527  0.00  0.00    -0.006 C 
ATOM     16  C   UNL     1      32.056 -14.161 -23.837  0.00  0.00    +0.004 C 
ATOM     17  C   UNL     1      32.821 -15.605 -21.101  0.00  0.00    +0.051 C 
ATOM     18  C   UNL     1      34.514 -15.939 -22.931  0.00  0.00    +0.030 C 
ATOM     19  C   UNL     1      34.171 -16.209 -21.471  0.00  0.00    +0.115 C 
ENDROOT
BRANCH   8  20
ATOM     20  O   UNL     1      32.590  -7.122 -24.813  0.00  0.00    -0.375 OA
ATOM     21  H   UNL     1      33.352  -6.575 -25.061  0.00  0.00    +0.211 HD
ENDBRANCH   8  20
BRANCH  10  22
ATOM     22  O   UNL     1      30.851 -11.441 -20.270  0.00  0.00    -0.380 OA
ATOM     23  H   UNL     1      30.938 -10.917 -19.458  0.00  0.00    +0.211 HD
ENDBRANCH  10  22
BRANCH  19  24
ATOM     24  O   UNL     1      34.144 -17.614 -21.240  0.00  0.00    -0.384 OA
ATOM     25  H   UNL     1      34.897 -18.030 -21.689  0.00  0.00    +0.210 HD
ENDBRANCH  19  24
BRANCH   8  26
ATOM     26  C   UNL     1      34.239  -7.449 -23.174  0.00  0.00    -0.053 C 
ATOM     27  C   UNL     1      35.338  -7.131 -22.809  0.00  0.00    -0.012 C 
ENDBRANCH   8  26
TORSDOF 4
ENDMDL
