MODEL 1
REMARK VINA RESULT:      -7.2      0.000      0.000
REMARK  Name = 447196
REMARK  5 active torsions:
REMARK  status: ('A' for Active; 'I' for Inactive)
REMARK    1  A    between atoms: N_4  and  C_11
REMARK    2  A    between atoms: C_11  and  CA_12
REMARK    3  A    between atoms: CA_12  and  N_13
REMARK    4  A    between atoms: CA_12  and  C_18
REMARK    5  A    between atoms: C_18  and  O_19
REMARK                            x       y       z     vdW  Elec       q    Type
REMARK                         _______ _______ _______ _____ _____    ______ ____
ROOT
ATOM      1  I   UNL     1      33.691 -23.322 -16.416  0.00  0.00    -0.036 I 
ATOM      2  O   UNL     1      36.501 -25.236 -11.303  0.00  0.00    -0.252 OA
ATOM      3  O   UNL     1      32.595 -24.257 -13.512  0.00  0.00    -0.269 OA
ATOM      4  N   UNL     1      36.637 -24.485 -13.507  0.00  0.00    -0.243 N 
ATOM      5  N   UNL     1      34.563 -24.740 -12.424  0.00  0.00    -0.235 N 
ATOM      6  C   UNL     1      35.956 -24.848 -12.338  0.00  0.00    +0.314 C 
ATOM      7  C   UNL     1      35.968 -24.060 -14.637  0.00  0.00    +0.079 C 
ATOM      8  C   UNL     1      34.635 -23.959 -14.713  0.00  0.00    +0.099 C 
ATOM      9  C   UNL     1      33.821 -24.323 -13.521  0.00  0.00    +0.259 C 
ATOM     10  H   UNL     1      34.054 -24.988 -11.619  0.00  0.00    +0.159 HD
ENDROOT
BRANCH   4  11
ATOM     11  C   UNL     1      38.094 -24.547 -13.564  0.00  0.00    +0.089 C 
BRANCH  11  12
ATOM     12  CA  UNL     1      38.580 -25.467 -14.684  0.00  0.00    +0.056 C 
BRANCH  12  13
ATOM     13  N   UNL     1      38.312 -26.861 -14.339  0.00  0.00    +0.390 N 
ATOM     14  H1  UNL     1      38.645 -27.046 -13.393  0.00  0.00    -0.088 HD
ATOM     15  H2  UNL     1      38.798 -27.473 -14.995  0.00  0.00    -0.088 HD
ATOM     16  H3  UNL     1      37.309 -27.037 -14.387  0.00  0.00    -0.088 HD
ENDBRANCH  12  13
BRANCH  12  18
ATOM     17  OXT UNL     1      40.872 -24.804 -14.176  0.00  0.00    -0.253 OA
ATOM     18  C   UNL     1      40.077 -25.357 -14.924  0.00  0.00    +0.295 C 
BRANCH  18  19
ATOM     19  O   UNL     1      40.456 -25.964 -16.081  0.00  0.00    -0.482 OA
ATOM     20  H   UNL     1      41.307 -25.803 -16.437  0.00  0.00    +0.295 HD
ENDBRANCH  18  19
ENDBRANCH  12  18
ENDBRANCH  11  12
ENDBRANCH   4  11
TORSDOF 5
ENDMDL
MODEL 2
REMARK VINA RESULT:      -6.9      3.956      5.102
REMARK  Name = 447196
REMARK  5 active torsions:
REMARK  status: ('A' for Active; 'I' for Inactive)
REMARK    1  A    between atoms: N_4  and  C_11
REMARK    2  A    between atoms: C_11  and  CA_12
REMARK    3  A    between atoms: CA_12  and  N_13
REMARK    4  A    between atoms: CA_12  and  C_18
REMARK    5  A    between atoms: C_18  and  O_19
REMARK                            x       y       z     vdW  Elec       q    Type
REMARK                         _______ _______ _______ _____ _____    ______ ____
ROOT
ATOM      1  I   UNL     1      40.120 -25.484 -14.568  0.00  0.00    -0.036 I 
ATOM      2  O   UNL     1      34.122 -24.326 -15.188  0.00  0.00    -0.252 OA
ATOM      3  O   UNL     1      37.458 -27.227 -13.949  0.00  0.00    -0.269 OA
ATOM      4  N   UNL     1      36.335 -23.623 -15.409  0.00  0.00    -0.243 N 
ATOM      5  N   UNL     1      35.804 -25.759 -14.576  0.00  0.00    -0.235 N 
ATOM      6  C   UNL     1      35.330 -24.539 -15.073  0.00  0.00    +0.314 C 
ATOM      7  C   UNL     1      37.674 -23.922 -15.254  0.00  0.00    +0.079 C 
ATOM      8  C   UNL     1      38.121 -25.091 -14.779  0.00  0.00    +0.099 C 
ATOM      9  C   UNL     1      37.129 -26.131 -14.393  0.00  0.00    +0.259 C 
ATOM     10  H   UNL     1      35.123 -26.426 -14.331  0.00  0.00    +0.159 HD
ENDROOT
BRANCH   4  11
ATOM     11  C   UNL     1      35.990 -22.309 -15.940  0.00  0.00    +0.089 C 
BRANCH  11  12
ATOM     12  CA  UNL     1      36.864 -21.931 -17.137  0.00  0.00    +0.056 C 
BRANCH  12  13
ATOM     13  N   UNL     1      37.510 -20.642 -16.897  0.00  0.00    +0.390 N 
ATOM     14  H1  UNL     1      38.213 -20.476 -17.618  0.00  0.00    -0.088 HD
ATOM     15  H2  UNL     1      37.960 -20.653 -15.981  0.00  0.00    -0.088 HD
ATOM     16  H3  UNL     1      36.812 -19.901 -16.925  0.00  0.00    -0.088 HD
ENDBRANCH  12  13
BRANCH  12  18
ATOM     17  OXT UNL     1      35.167 -22.534 -18.782  0.00  0.00    -0.253 OA
ATOM     18  C   UNL     1      36.066 -21.787 -18.422  0.00  0.00    +0.295 C 
BRANCH  18  19
ATOM     19  O   UNL     1      36.457 -20.704 -19.147  0.00  0.00    -0.482 OA
ATOM     20  H   UNL     1      37.060 -20.809 -19.857  0.00  0.00    +0.295 HD
ENDBRANCH  18  19
ENDBRANCH  12  18
ENDBRANCH  11  12
ENDBRANCH   4  11
TORSDOF 5
ENDMDL
MODEL 3
REMARK VINA RESULT:      -6.9      2.388      2.963
REMARK  Name = 447196
REMARK  5 active torsions:
REMARK  status: ('A' for Active; 'I' for Inactive)
REMARK    1  A    between atoms: N_4  and  C_11
REMARK    2  A    between atoms: C_11  and  CA_12
REMARK    3  A    between atoms: CA_12  and  N_13
REMARK    4  A    between atoms: CA_12  and  C_18
REMARK    5  A    between atoms: C_18  and  O_19
REMARK                            x       y       z     vdW  Elec       q    Type
REMARK                         _______ _______ _______ _____ _____    ______ ____
ROOT
ATOM      1  I   UNL     1      33.872 -22.443 -18.832  0.00  0.00    -0.036 I 
ATOM      2  O   UNL     1      32.902 -24.593 -13.163  0.00  0.00    -0.252 OA
ATOM      3  O   UNL     1      31.209 -22.737 -17.007  0.00  0.00    -0.269 OA
ATOM      4  N   UNL     1      34.378 -24.128 -14.908  0.00  0.00    -0.243 N 
ATOM      5  N   UNL     1      32.079 -23.665 -15.091  0.00  0.00    -0.235 N 
ATOM      6  C   UNL     1      33.118 -24.164 -14.298  0.00  0.00    +0.314 C 
ATOM      7  C   UNL     1      34.555 -23.637 -16.186  0.00  0.00    +0.079 C 
ATOM      8  C   UNL     1      33.556 -23.161 -16.940  0.00  0.00    +0.099 C 
ATOM      9  C   UNL     1      32.177 -23.156 -16.379  0.00  0.00    +0.259 C 
ATOM     10  H   UNL     1      31.179 -23.675 -14.691  0.00  0.00    +0.159 HD
ENDROOT
BRANCH   4  11
ATOM     11  C   UNL     1      35.557 -24.617 -14.199  0.00  0.00    +0.089 C 
BRANCH  11  12
ATOM     12  CA  UNL     1      36.452 -25.466 -15.103  0.00  0.00    +0.056 C 
BRANCH  12  13
ATOM     13  N   UNL     1      36.026 -26.863 -15.058  0.00  0.00    +0.390 N 
ATOM     14  H1  UNL     1      36.092 -27.268 -15.992  0.00  0.00    -0.088 HD
ATOM     15  H2  UNL     1      35.060 -26.913 -14.733  0.00  0.00    -0.088 HD
ATOM     16  H3  UNL     1      36.628 -27.382 -14.419  0.00  0.00    -0.088 HD
ENDBRANCH  12  13
BRANCH  12  18
ATOM     17  OXT UNL     1      38.537 -24.436 -14.366  0.00  0.00    -0.253 OA
ATOM     18  C   UNL     1      37.909 -25.440 -14.674  0.00  0.00    +0.295 C 
BRANCH  18  19
ATOM     19  O   UNL     1      38.459 -26.685 -14.655  0.00  0.00    -0.482 OA
ATOM     20  H   UNL     1      37.925 -27.435 -14.824  0.00  0.00    +0.295 HD
ENDBRANCH  18  19
ENDBRANCH  12  18
ENDBRANCH  11  12
ENDBRANCH   4  11
TORSDOF 5
ENDMDL
MODEL 4
REMARK VINA RESULT:      -6.8      3.179      4.082
REMARK  Name = 447196
REMARK  5 active torsions:
REMARK  status: ('A' for Active; 'I' for Inactive)
REMARK    1  A    between atoms: N_4  and  C_11
REMARK    2  A    between atoms: C_11  and  CA_12
REMARK    3  A    between atoms: CA_12  and  N_13
REMARK    4  A    between atoms: CA_12  and  C_18
REMARK    5  A    between atoms: C_18  and  O_19
REMARK                            x       y       z     vdW  Elec       q    Type
REMARK                         _______ _______ _______ _____ _____    ______ ____
ROOT
ATOM      1  I   UNL     1      33.819 -22.411 -18.750  0.00  0.00    -0.036 I 
ATOM      2  O   UNL     1      32.652 -24.657 -13.156  0.00  0.00    -0.252 OA
ATOM      3  O   UNL     1      31.091 -22.752 -17.032  0.00  0.00    -0.269 OA
ATOM      4  N   UNL     1      34.190 -24.154 -14.837  0.00  0.00    -0.243 N 
ATOM      5  N   UNL     1      31.895 -23.704 -15.099  0.00  0.00    -0.235 N 
ATOM      6  C   UNL     1      32.907 -24.208 -14.275  0.00  0.00    +0.314 C 
ATOM      7  C   UNL     1      34.410 -23.642 -16.099  0.00  0.00    +0.079 C 
ATOM      8  C   UNL     1      33.437 -23.160 -16.883  0.00  0.00    +0.099 C 
ATOM      9  C   UNL     1      32.038 -23.174 -16.375  0.00  0.00    +0.259 C 
ATOM     10  H   UNL     1      30.981 -23.726 -14.734  0.00  0.00    +0.159 HD
ENDROOT
BRANCH   4  11
ATOM     11  C   UNL     1      35.344 -24.645 -14.092  0.00  0.00    +0.089 C 
BRANCH  11  12
ATOM     12  CA  UNL     1      35.853 -23.612 -13.085  0.00  0.00    +0.056 C 
BRANCH  12  13
ATOM     13  N   UNL     1      37.194 -23.168 -13.459  0.00  0.00    +0.390 N 
ATOM     14  H1  UNL     1      37.817 -23.258 -12.657  0.00  0.00    -0.088 HD
ATOM     15  H2  UNL     1      37.159 -22.192 -13.753  0.00  0.00    -0.088 HD
ATOM     16  H3  UNL     1      37.541 -23.742 -14.226  0.00  0.00    -0.088 HD
ENDBRANCH  12  13
BRANCH  12  18
ATOM     17  OXT UNL     1      36.825 -23.882 -10.864  0.00  0.00    -0.253 OA
ATOM     18  C   UNL     1      35.954 -24.169 -11.676  0.00  0.00    +0.295 C 
BRANCH  18  19
ATOM     19  O   UNL     1      34.944 -25.036 -11.394  0.00  0.00    -0.482 OA
ATOM     20  H   UNL     1      34.275 -25.197 -12.028  0.00  0.00    +0.295 HD
ENDBRANCH  18  19
ENDBRANCH  12  18
ENDBRANCH  11  12
ENDBRANCH   4  11
TORSDOF 5
ENDMDL
MODEL 5
REMARK VINA RESULT:      -6.7      2.549      2.981
REMARK  Name = 447196
REMARK  5 active torsions:
REMARK  status: ('A' for Active; 'I' for Inactive)
REMARK    1  A    between atoms: N_4  and  C_11
REMARK    2  A    between atoms: C_11  and  CA_12
REMARK    3  A    between atoms: CA_12  and  N_13
REMARK    4  A    between atoms: CA_12  and  C_18
REMARK    5  A    between atoms: C_18  and  O_19
REMARK                            x       y       z     vdW  Elec       q    Type
REMARK                         _______ _______ _______ _____ _____    ______ ____
ROOT
ATOM      1  I   UNL     1      31.025 -24.641 -13.878  0.00  0.00    -0.036 I 
ATOM      2  O   UNL     1      36.399 -23.064 -16.396  0.00  0.00    -0.252 OA
ATOM      3  O   UNL     1      31.811 -23.066 -16.600  0.00  0.00    -0.269 OA
ATOM      4  N   UNL     1      35.217 -24.086 -14.664  0.00  0.00    -0.243 N 
ATOM      5  N   UNL     1      34.107 -23.077 -16.478  0.00  0.00    -0.235 N 
ATOM      6  C   UNL     1      35.331 -23.391 -15.875  0.00  0.00    +0.314 C 
ATOM      7  C   UNL     1      33.989 -24.422 -14.131  0.00  0.00    +0.079 C 
ATOM      8  C   UNL     1      32.822 -24.119 -14.713  0.00  0.00    +0.099 C 
ATOM      9  C   UNL     1      32.838 -23.380 -16.005  0.00  0.00    +0.259 C 
ATOM     10  H   UNL     1      34.152 -22.589 -17.332  0.00  0.00    +0.159 HD
ENDROOT
BRANCH   4  11
ATOM     11  C   UNL     1      36.410 -24.480 -13.922  0.00  0.00    +0.089 C 
BRANCH  11  12
ATOM     12  CA  UNL     1      37.022 -25.768 -14.474  0.00  0.00    +0.056 C 
BRANCH  12  13
ATOM     13  N   UNL     1      36.884 -26.846 -13.496  0.00  0.00    +0.390 N 
ATOM     14  H1  UNL     1      37.809 -27.194 -13.242  0.00  0.00    -0.088 HD
ATOM     15  H2  UNL     1      36.336 -27.604 -13.902  0.00  0.00    -0.088 HD
ATOM     16  H3  UNL     1      36.414 -26.492 -12.664  0.00  0.00    -0.088 HD
ENDBRANCH  12  13
BRANCH  12  18
ATOM     17  OXT UNL     1      39.340 -26.516 -14.618  0.00  0.00    -0.253 OA
ATOM     18  C   UNL     1      38.507 -25.632 -14.766  0.00  0.00    +0.295 C 
BRANCH  18  19
ATOM     19  O   UNL     1      38.825 -24.395 -15.234  0.00  0.00    -0.482 OA
ATOM     20  H   UNL     1      38.945 -24.258 -16.153  0.00  0.00    +0.295 HD
ENDBRANCH  18  19
ENDBRANCH  12  18
ENDBRANCH  11  12
ENDBRANCH   4  11
TORSDOF 5
ENDMDL
MODEL 6
REMARK VINA RESULT:      -6.7      3.379      4.066
REMARK  Name = 447196
REMARK  5 active torsions:
REMARK  status: ('A' for Active; 'I' for Inactive)
REMARK    1  A    between atoms: N_4  and  C_11
REMARK    2  A    between atoms: C_11  and  CA_12
REMARK    3  A    between atoms: CA_12  and  N_13
REMARK    4  A    between atoms: CA_12  and  C_18
REMARK    5  A    between atoms: C_18  and  O_19
REMARK                            x       y       z     vdW  Elec       q    Type
REMARK                         _______ _______ _______ _____ _____    ______ ____
ROOT
ATOM      1  I   UNL     1      36.028 -21.128 -19.962  0.00  0.00    -0.036 I 
ATOM      2  O   UNL     1      33.206 -23.969 -15.306  0.00  0.00    -0.252 OA
ATOM      3  O   UNL     1      32.992 -22.181 -19.531  0.00  0.00    -0.269 OA
ATOM      4  N   UNL     1      35.140 -23.023 -16.205  0.00  0.00    -0.243 N 
ATOM      5  N   UNL     1      33.122 -23.070 -17.414  0.00  0.00    -0.235 N 
ATOM      6  C   UNL     1      33.790 -23.397 -16.229  0.00  0.00    +0.314 C 
ATOM      7  C   UNL     1      35.738 -22.386 -17.273  0.00  0.00    +0.079 C 
ATOM      8  C   UNL     1      35.093 -22.075 -18.404  0.00  0.00    +0.099 C 
ATOM      9  C   UNL     1      33.653 -22.432 -18.527  0.00  0.00    +0.259 C 
ATOM     10  H   UNL     1      32.170 -23.318 -17.463  0.00  0.00    +0.159 HD
ENDROOT
BRANCH   4  11
ATOM     11  C   UNL     1      35.963 -23.301 -15.032  0.00  0.00    +0.089 C 
BRANCH  11  12
ATOM     12  CA  UNL     1      36.465 -24.746 -15.019  0.00  0.00    +0.056 C 
BRANCH  12  13
ATOM     13  N   UNL     1      35.752 -25.513 -13.999  0.00  0.00    +0.390 N 
ATOM     14  H1  UNL     1      34.754 -25.311 -14.058  0.00  0.00    -0.088 HD
ATOM     15  H2  UNL     1      36.097 -25.253 -13.075  0.00  0.00    -0.088 HD
ATOM     16  H3  UNL     1      35.907 -26.509 -14.153  0.00  0.00    -0.088 HD
ENDBRANCH  12  13
BRANCH  12  18
ATOM     17  OXT UNL     1      38.529 -24.175 -13.852  0.00  0.00    -0.253 OA
ATOM     18  C   UNL     1      37.944 -24.849 -14.688  0.00  0.00    +0.295 C 
BRANCH  18  19
ATOM     19  O   UNL     1      38.568 -25.805 -15.429  0.00  0.00    -0.482 OA
ATOM     20  H   UNL     1      38.402 -26.711 -15.260  0.00  0.00    +0.295 HD
ENDBRANCH  18  19
ENDBRANCH  12  18
ENDBRANCH  11  12
ENDBRANCH   4  11
TORSDOF 5
ENDMDL
MODEL 7
REMARK VINA RESULT:      -6.6      3.227      4.368
REMARK  Name = 447196
REMARK  5 active torsions:
REMARK  status: ('A' for Active; 'I' for Inactive)
REMARK    1  A    between atoms: N_4  and  C_11
REMARK    2  A    between atoms: C_11  and  CA_12
REMARK    3  A    between atoms: CA_12  and  N_13
REMARK    4  A    between atoms: CA_12  and  C_18
REMARK    5  A    between atoms: C_18  and  O_19
REMARK                            x       y       z     vdW  Elec       q    Type
REMARK                         _______ _______ _______ _____ _____    ______ ____
ROOT
ATOM      1  I   UNL     1      30.183 -23.962 -14.712  0.00  0.00    -0.036 I 
ATOM      2  O   UNL     1      36.140 -23.506 -16.129  0.00  0.00    -0.252 OA
ATOM      3  O   UNL     1      31.757 -22.764 -17.280  0.00  0.00    -0.269 OA
ATOM      4  N   UNL     1      34.477 -24.175 -14.636  0.00  0.00    -0.243 N 
ATOM      5  N   UNL     1      33.944 -23.147 -16.684  0.00  0.00    -0.235 N 
ATOM      6  C   UNL     1      34.949 -23.609 -15.827  0.00  0.00    +0.314 C 
ATOM      7  C   UNL     1      33.128 -24.259 -14.354  0.00  0.00    +0.079 C 
ATOM      8  C   UNL     1      32.172 -23.814 -15.178  0.00  0.00    +0.099 C 
ATOM      9  C   UNL     1      32.573 -23.195 -16.471  0.00  0.00    +0.259 C 
ATOM     10  H   UNL     1      34.242 -22.743 -17.531  0.00  0.00    +0.159 HD
ENDROOT
BRANCH   4  11
ATOM     11  C   UNL     1      35.411 -24.700 -13.645  0.00  0.00    +0.089 C 
BRANCH  11  12
ATOM     12  CA  UNL     1      35.864 -23.620 -12.662  0.00  0.00    +0.056 C 
BRANCH  12  13
ATOM     13  N   UNL     1      37.189 -23.128 -13.035  0.00  0.00    +0.390 N 
ATOM     14  H1  UNL     1      37.092 -22.282 -13.595  0.00  0.00    -0.088 HD
ATOM     15  H2  UNL     1      37.676 -23.841 -13.578  0.00  0.00    -0.088 HD
ATOM     16  H3  UNL     1      37.723 -22.918 -12.192  0.00  0.00    -0.088 HD
ENDBRANCH  12  13
BRANCH  12  18
ATOM     17  OXT UNL     1      36.794 -23.755 -10.411  0.00  0.00    -0.253 OA
ATOM     18  C   UNL     1      35.975 -24.134 -11.237  0.00  0.00    +0.295 C 
BRANCH  18  19
ATOM     19  O   UNL     1      35.035 -25.079 -10.960  0.00  0.00    -0.482 OA
ATOM     20  H   UNL     1      34.822 -25.729 -11.599  0.00  0.00    +0.295 HD
ENDBRANCH  18  19
ENDBRANCH  12  18
ENDBRANCH  11  12
ENDBRANCH   4  11
TORSDOF 5
ENDMDL
MODEL 8
REMARK VINA RESULT:      -6.6      5.641      6.453
REMARK  Name = 447196
REMARK  5 active torsions:
REMARK  status: ('A' for Active; 'I' for Inactive)
REMARK    1  A    between atoms: N_4  and  C_11
REMARK    2  A    between atoms: C_11  and  CA_12
REMARK    3  A    between atoms: CA_12  and  N_13
REMARK    4  A    between atoms: CA_12  and  C_18
REMARK    5  A    between atoms: C_18  and  O_19
REMARK                            x       y       z     vdW  Elec       q    Type
REMARK                         _______ _______ _______ _____ _____    ______ ____
ROOT
ATOM      1  I   UNL     1      34.936 -18.608 -21.871  0.00  0.00    -0.036 I 
ATOM      2  O   UNL     1      34.003 -23.259 -17.973  0.00  0.00    -0.252 OA
ATOM      3  O   UNL     1      32.290 -20.272 -21.011  0.00  0.00    -0.269 OA
ATOM      4  N   UNL     1      35.464 -21.742 -18.974  0.00  0.00    -0.243 N 
ATOM      5  N   UNL     1      33.169 -21.758 -19.492  0.00  0.00    -0.235 N 
ATOM      6  C   UNL     1      34.210 -22.325 -18.749  0.00  0.00    +0.314 C 
ATOM      7  C   UNL     1      35.633 -20.697 -19.860  0.00  0.00    +0.079 C 
ATOM      8  C   UNL     1      34.632 -20.159 -20.568  0.00  0.00    +0.099 C 
ATOM      9  C   UNL     1      33.260 -20.710 -20.398  0.00  0.00    +0.259 C 
ATOM     10  H   UNL     1      32.274 -22.145 -19.357  0.00  0.00    +0.159 HD
ENDROOT
BRANCH   4  11
ATOM     11  C   UNL     1      36.644 -22.230 -18.268  0.00  0.00    +0.089 C 
BRANCH  11  12
ATOM     12  CA  UNL     1      36.623 -21.841 -16.789  0.00  0.00    +0.056 C 
BRANCH  12  13
ATOM     13  N   UNL     1      37.662 -20.849 -16.518  0.00  0.00    +0.390 N 
ATOM     14  H1  UNL     1      38.533 -21.326 -16.284  0.00  0.00    -0.088 HD
ATOM     15  H2  UNL     1      37.376 -20.262 -15.734  0.00  0.00    -0.088 HD
ATOM     16  H3  UNL     1      37.803 -20.269 -17.344  0.00  0.00    -0.088 HD
ENDBRANCH  12  13
BRANCH  12  18
ATOM     17  OXT UNL     1      37.846 -23.115 -15.106  0.00  0.00    -0.253 OA
ATOM     18  C   UNL     1      36.894 -23.019 -15.869  0.00  0.00    +0.295 C 
BRANCH  18  19
ATOM     19  O   UNL     1      35.937 -23.981 -15.974  0.00  0.00    -0.482 OA
ATOM     20  H   UNL     1      35.223 -23.867 -16.569  0.00  0.00    +0.295 HD
ENDBRANCH  18  19
ENDBRANCH  12  18
ENDBRANCH  11  12
ENDBRANCH   4  11
TORSDOF 5
ENDMDL
MODEL 9
REMARK VINA RESULT:      -6.5     12.905     13.895
REMARK  Name = 447196
REMARK  5 active torsions:
REMARK  status: ('A' for Active; 'I' for Inactive)
REMARK    1  A    between atoms: N_4  and  C_11
REMARK    2  A    between atoms: C_11  and  CA_12
REMARK    3  A    between atoms: CA_12  and  N_13
REMARK    4  A    between atoms: CA_12  and  C_18
REMARK    5  A    between atoms: C_18  and  O_19
REMARK                            x       y       z     vdW  Elec       q    Type
REMARK                         _______ _______ _______ _____ _____    ______ ____
ROOT
ATOM      1  I   UNL     1      34.172 -11.051 -24.952  0.00  0.00    -0.036 I 
ATOM      2  O   UNL     1      31.955 -15.370 -21.191  0.00  0.00    -0.252 OA
ATOM      3  O   UNL     1      32.064 -10.967 -22.490  0.00  0.00    -0.269 OA
ATOM      4  N   UNL     1      33.338 -14.778 -22.975  0.00  0.00    -0.243 N 
ATOM      5  N   UNL     1      32.026 -13.176 -21.856  0.00  0.00    -0.235 N 
ATOM      6  C   UNL     1      32.414 -14.518 -21.955  0.00  0.00    +0.314 C 
ATOM      7  C   UNL     1      33.812 -13.779 -23.800  0.00  0.00    +0.079 C 
ATOM      8  C   UNL     1      33.438 -12.497 -23.700  0.00  0.00    +0.099 C 
ATOM      9  C   UNL     1      32.457 -12.119 -22.646  0.00  0.00    +0.259 C 
ATOM     10  H   UNL     1      31.377 -12.959 -21.148  0.00  0.00    +0.159 HD
ENDROOT
BRANCH   4  11
ATOM     11  C   UNL     1      33.832 -16.133 -23.196  0.00  0.00    +0.089 C 
BRANCH  11  12
ATOM     12  CA  UNL     1      35.194 -16.356 -22.535  0.00  0.00    +0.056 C 
BRANCH  12  13
ATOM     13  N   UNL     1      35.949 -17.366 -23.274  0.00  0.00    +0.390 N 
ATOM     14  H1  UNL     1      35.358 -17.765 -24.003  0.00  0.00    -0.088 HD
ATOM     15  H2  UNL     1      36.245 -18.104 -22.635  0.00  0.00    -0.088 HD
ATOM     16  H3  UNL     1      36.769 -16.934 -23.699  0.00  0.00    -0.088 HD
ENDBRANCH  12  13
BRANCH  12  18
ATOM     17  OXT UNL     1      35.123 -18.033 -20.765  0.00  0.00    -0.253 OA
ATOM     18  C   UNL     1      35.076 -16.859 -21.106  0.00  0.00    +0.295 C 
BRANCH  18  19
ATOM     19  O   UNL     1      34.919 -15.842 -20.217  0.00  0.00    -0.482 OA
ATOM     20  H   UNL     1      35.136 -14.965 -20.465  0.00  0.00    +0.295 HD
ENDBRANCH  18  19
ENDBRANCH  12  18
ENDBRANCH  11  12
ENDBRANCH   4  11
TORSDOF 5
ENDMDL
