MODEL 1
REMARK VINA RESULT:     -10.3      0.000      0.000
REMARK  Name = 9578005
REMARK  6 active torsions:
REMARK  status: ('A' for Active; 'I' for Inactive)
REMARK    1  A    between atoms: C_1  and  C_3
REMARK    2  A    between atoms: C_1  and  S_15
REMARK    3  A    between atoms: C_5  and  O_9
REMARK    4  A    between atoms: O_9  and  C_10
REMARK    5  A    between atoms: C_10  and  C_14
REMARK    6  A    between atoms: S_15  and  C_19
REMARK                            x       y       z     vdW  Elec       q    Type
REMARK                         _______ _______ _______ _____ _____    ______ ____
ROOT
ATOM      1  C   UNL     1      34.641 -14.390 -23.145  0.00  0.00    +0.140 C 
ENDROOT
BRANCH   1   3
ATOM      2  N   UNL     1      34.787 -16.484 -24.329  0.00  0.00    -0.247 NA
ATOM      3  C   UNL     1      34.715 -15.889 -23.120  0.00  0.00    +0.072 C 
ATOM      4  C   UNL     1      34.708 -16.562 -21.913  0.00  0.00    +0.027 C 
ATOM      5  C   UNL     1      34.779 -17.950 -21.948  0.00  0.00    +0.138 C 
ATOM      6  C   UNL     1      34.626 -15.837 -20.613  0.00  0.00    +0.035 C 
ATOM      7  C   UNL     1      34.854 -18.606 -23.172  0.00  0.00    +0.057 C 
ATOM      8  C   UNL     1      34.855 -17.834 -24.322  0.00  0.00    +0.102 C 
BRANCH   5   9
ATOM      9  O   UNL     1      34.778 -18.681 -20.798  0.00  0.00    -0.467 OA
BRANCH   9  10
ATOM     10  C   UNL     1      34.385 -20.047 -20.899  0.00  0.00    +0.308 C 
BRANCH  10  14
ATOM     11  F   UNL     1      32.383 -18.984 -20.275  0.00  0.00    -0.166 F 
ATOM     12  F   UNL     1      32.953 -20.777 -19.170  0.00  0.00    -0.166 F 
ATOM     13  F   UNL     1      32.225 -20.942 -21.225  0.00  0.00    -0.166 F 
ATOM     14  C   UNL     1      32.975 -20.193 -20.387  0.00  0.00    +0.438 C 
ENDBRANCH  10  14
ENDBRANCH   9  10
ENDBRANCH   5   9
ENDBRANCH   1   3
BRANCH   1  15
ATOM     15  S   UNL     1      32.954 -13.808 -23.488  0.00  0.00    +0.085 S 
ATOM     16  O   UNL     1      32.111 -14.151 -22.275  0.00  0.00    -0.252 OA
BRANCH  15  19
ATOM     17  N   UNL     1      34.286 -11.438 -24.138  0.00  0.00    -0.307 N 
ATOM     18  N   UNL     1      32.433 -11.167 -22.942  0.00  0.00    -0.307 N 
ATOM     19  C   UNL     1      33.228 -12.041 -23.516  0.00  0.00    +0.226 C 
ATOM     20  C   UNL     1      34.165 -10.085 -23.951  0.00  0.00    +0.060 C 
ATOM     21  C   UNL     1      33.001  -9.941 -23.203  0.00  0.00    +0.060 C 
ATOM     22  C   UNL     1      34.951  -9.007 -24.362  0.00  0.00    +0.016 C 
ATOM     23  C   UNL     1      32.580  -8.653 -22.831  0.00  0.00    +0.016 C 
ATOM     24  C   UNL     1      34.517  -7.732 -23.983  0.00  0.00    +0.001 C 
ATOM     25  C   UNL     1      33.353  -7.556 -23.231  0.00  0.00    +0.001 C 
ATOM     26  H   UNL     1      35.006 -11.894 -24.631  0.00  0.00    +0.149 HD
ATOM     27  H   UNL     1      31.609 -11.350 -22.435  0.00  0.00    +0.149 HD
ENDBRANCH  15  19
ENDBRANCH   1  15
TORSDOF 6
ENDMDL
MODEL 2
REMARK VINA RESULT:     -10.2      1.221      1.528
REMARK  Name = 9578005
REMARK  6 active torsions:
REMARK  status: ('A' for Active; 'I' for Inactive)
REMARK    1  A    between atoms: C_1  and  C_3
REMARK    2  A    between atoms: C_1  and  S_15
REMARK    3  A    between atoms: C_5  and  O_9
REMARK    4  A    between atoms: O_9  and  C_10
REMARK    5  A    between atoms: C_10  and  C_14
REMARK    6  A    between atoms: S_15  and  C_19
REMARK                            x       y       z     vdW  Elec       q    Type
REMARK                         _______ _______ _______ _____ _____    ______ ____
ROOT
ATOM      1  C   UNL     1      34.601 -14.644 -23.201  0.00  0.00    +0.140 C 
ENDROOT
BRANCH   1   3
ATOM      2  N   UNL     1      34.604 -16.756 -24.362  0.00  0.00    -0.247 NA
ATOM      3  C   UNL     1      34.655 -16.144 -23.161  0.00  0.00    +0.072 C 
ATOM      4  C   UNL     1      34.749 -16.801 -21.949  0.00  0.00    +0.027 C 
ATOM      5  C   UNL     1      34.795 -18.190 -21.970  0.00  0.00    +0.138 C 
ATOM      6  C   UNL     1      34.800 -16.058 -20.657  0.00  0.00    +0.035 C 
ATOM      7  C   UNL     1      34.746 -18.864 -23.186  0.00  0.00    +0.057 C 
ATOM      8  C   UNL     1      34.652 -18.107 -24.343  0.00  0.00    +0.102 C 
BRANCH   5   9
ATOM      9  O   UNL     1      34.889 -18.906 -20.814  0.00  0.00    -0.467 OA
BRANCH   9  10
ATOM     10  C   UNL     1      36.105 -19.614 -20.587  0.00  0.00    +0.308 C 
BRANCH  10  14
ATOM     11  F   UNL     1      36.531 -20.946 -18.697  0.00  0.00    -0.166 F 
ATOM     12  F   UNL     1      36.096 -21.974 -20.571  0.00  0.00    -0.166 F 
ATOM     13  F   UNL     1      34.498 -20.949 -19.488  0.00  0.00    -0.166 F 
ATOM     14  C   UNL     1      35.802 -20.883 -19.832  0.00  0.00    +0.438 C 
ENDBRANCH  10  14
ENDBRANCH   9  10
ENDBRANCH   5   9
ENDBRANCH   1   3
BRANCH   1  15
ATOM     15  S   UNL     1      32.903 -14.039 -23.424  0.00  0.00    +0.085 S 
ATOM     16  O   UNL     1      32.143 -14.369 -22.154  0.00  0.00    -0.252 OA
BRANCH  15  19
ATOM     17  N   UNL     1      34.254 -11.693 -24.123  0.00  0.00    -0.307 N 
ATOM     18  N   UNL     1      32.425 -11.386 -22.897  0.00  0.00    -0.307 N 
ATOM     19  C   UNL     1      33.199 -12.276 -23.477  0.00  0.00    +0.226 C 
ATOM     20  C   UNL     1      34.153 -10.337 -23.948  0.00  0.00    +0.060 C 
ATOM     21  C   UNL     1      33.004 -10.171 -23.181  0.00  0.00    +0.060 C 
ATOM     22  C   UNL     1      34.945  -9.274 -24.384  0.00  0.00    +0.016 C 
ATOM     23  C   UNL     1      32.606  -8.874 -22.816  0.00  0.00    +0.016 C 
ATOM     24  C   UNL     1      34.534  -7.990 -24.011  0.00  0.00    +0.001 C 
ATOM     25  C   UNL     1      33.386  -7.790 -23.241  0.00  0.00    +0.001 C 
ATOM     26  H   UNL     1      34.959 -12.164 -24.623  0.00  0.00    +0.149 HD
ATOM     27  H   UNL     1      31.608 -11.553 -22.374  0.00  0.00    +0.149 HD
ENDBRANCH  15  19
ENDBRANCH   1  15
TORSDOF 6
ENDMDL
MODEL 3
REMARK VINA RESULT:     -10.1      3.960      8.814
REMARK  Name = 9578005
REMARK  6 active torsions:
REMARK  status: ('A' for Active; 'I' for Inactive)
REMARK    1  A    between atoms: C_1  and  C_3
REMARK    2  A    between atoms: C_1  and  S_15
REMARK    3  A    between atoms: C_5  and  O_9
REMARK    4  A    between atoms: O_9  and  C_10
REMARK    5  A    between atoms: C_10  and  C_14
REMARK    6  A    between atoms: S_15  and  C_19
REMARK                            x       y       z     vdW  Elec       q    Type
REMARK                         _______ _______ _______ _____ _____    ______ ____
ROOT
ATOM      1  C   UNL     1      34.796 -16.112 -21.925  0.00  0.00    +0.140 C 
ENDROOT
BRANCH   1   3
ATOM      2  N   UNL     1      34.438 -14.383 -23.565  0.00  0.00    -0.247 NA
ATOM      3  C   UNL     1      34.062 -14.880 -22.368  0.00  0.00    +0.072 C 
ATOM      4  C   UNL     1      33.078 -14.334 -21.566  0.00  0.00    +0.027 C 
ATOM      5  C   UNL     1      32.431 -13.193 -22.025  0.00  0.00    +0.138 C 
ATOM      6  C   UNL     1      32.715 -14.938 -20.252  0.00  0.00    +0.035 C 
ATOM      7  C   UNL     1      32.786 -12.645 -23.253  0.00  0.00    +0.057 C 
ATOM      8  C   UNL     1      33.786 -13.273 -23.978  0.00  0.00    +0.102 C 
BRANCH   5   9
ATOM      9  O   UNL     1      31.450 -12.599 -21.289  0.00  0.00    -0.467 OA
BRANCH   9  10
ATOM     10  C   UNL     1      31.519 -11.183 -21.139  0.00  0.00    +0.308 C 
BRANCH  10  14
ATOM     11  F   UNL     1      32.407  -9.876 -19.398  0.00  0.00    -0.166 F 
ATOM     12  F   UNL     1      31.808 -11.917 -18.915  0.00  0.00    -0.166 F 
ATOM     13  F   UNL     1      30.290 -10.390 -19.287  0.00  0.00    -0.166 F 
ATOM     14  C   UNL     1      31.503 -10.842 -19.671  0.00  0.00    +0.438 C 
ENDBRANCH  10  14
ENDBRANCH   9  10
ENDBRANCH   5   9
ENDBRANCH   1   3
BRANCH   1  15
ATOM     15  S   UNL     1      34.373 -17.550 -22.951  0.00  0.00    +0.085 S 
ATOM     16  O   UNL     1      35.473 -17.699 -23.984  0.00  0.00    -0.252 OA
BRANCH  15  19
ATOM     17  N   UNL     1      33.481 -19.558 -21.223  0.00  0.00    -0.307 N 
ATOM     18  N   UNL     1      35.684 -19.267 -21.254  0.00  0.00    -0.307 N 
ATOM     19  C   UNL     1      34.535 -18.860 -21.744  0.00  0.00    +0.226 C 
ATOM     20  C   UNL     1      33.985 -20.475 -20.337  0.00  0.00    +0.060 C 
ATOM     21  C   UNL     1      35.361 -20.274 -20.375  0.00  0.00    +0.060 C 
ATOM     22  C   UNL     1      33.372 -21.436 -19.531  0.00  0.00    +0.016 C 
ATOM     23  C   UNL     1      36.192 -21.068 -19.567  0.00  0.00    +0.016 C 
ATOM     24  C   UNL     1      34.214 -22.217 -18.733  0.00  0.00    +0.001 C 
ATOM     25  C   UNL     1      35.600 -22.039 -18.749  0.00  0.00    +0.001 C 
ATOM     26  H   UNL     1      32.531 -19.425 -21.444  0.00  0.00    +0.149 HD
ATOM     27  H   UNL     1      36.582 -18.924 -21.470  0.00  0.00    +0.149 HD
ENDBRANCH  15  19
ENDBRANCH   1  15
TORSDOF 6
ENDMDL
MODEL 4
REMARK VINA RESULT:      -9.9      3.602      5.330
REMARK  Name = 9578005
REMARK  6 active torsions:
REMARK  status: ('A' for Active; 'I' for Inactive)
REMARK    1  A    between atoms: C_1  and  C_3
REMARK    2  A    between atoms: C_1  and  S_15
REMARK    3  A    between atoms: C_5  and  O_9
REMARK    4  A    between atoms: O_9  and  C_10
REMARK    5  A    between atoms: C_10  and  C_14
REMARK    6  A    between atoms: S_15  and  C_19
REMARK                            x       y       z     vdW  Elec       q    Type
REMARK                         _______ _______ _______ _____ _____    ______ ____
ROOT
ATOM      1  C   UNL     1      34.535 -18.502 -21.346  0.00  0.00    +0.140 C 
ENDROOT
BRANCH   1   3
ATOM      2  N   UNL     1      36.091 -20.044 -20.341  0.00  0.00    -0.247 NA
ATOM      3  C   UNL     1      34.791 -19.752 -20.556  0.00  0.00    +0.072 C 
ATOM      4  C   UNL     1      33.731 -20.514 -20.104  0.00  0.00    +0.027 C 
ATOM      5  C   UNL     1      34.025 -21.662 -19.377  0.00  0.00    +0.138 C 
ATOM      6  C   UNL     1      32.316 -20.130 -20.380  0.00  0.00    +0.035 C 
ATOM      7  C   UNL     1      35.350 -22.002 -19.132  0.00  0.00    +0.057 C 
ATOM      8  C   UNL     1      36.337 -21.168 -19.631  0.00  0.00    +0.102 C 
BRANCH   5   9
ATOM      9  O   UNL     1      33.031 -22.462 -18.899  0.00  0.00    -0.467 OA
BRANCH   9  10
ATOM     10  C   UNL     1      33.347 -23.290 -17.782  0.00  0.00    +0.308 C 
BRANCH  10  14
ATOM     11  F   UNL     1      32.805 -22.774 -15.554  0.00  0.00    -0.166 F 
ATOM     12  F   UNL     1      31.607 -24.301 -16.549  0.00  0.00    -0.166 F 
ATOM     13  F   UNL     1      31.372 -22.197 -17.094  0.00  0.00    -0.166 F 
ATOM     14  C   UNL     1      32.270 -23.141 -16.738  0.00  0.00    +0.438 C 
ENDBRANCH  10  14
ENDBRANCH   9  10
ENDBRANCH   5   9
ENDBRANCH   1   3
BRANCH   1  15
ATOM     15  S   UNL     1      35.450 -18.501 -22.916  0.00  0.00    +0.085 S 
ATOM     16  O   UNL     1      34.976 -19.704 -23.707  0.00  0.00    -0.252 OA
BRANCH  15  19
ATOM     17  N   UNL     1      34.781 -15.791 -23.069  0.00  0.00    -0.307 N 
ATOM     18  N   UNL     1      34.248 -16.985 -24.866  0.00  0.00    -0.307 N 
ATOM     19  C   UNL     1      34.787 -17.020 -23.668  0.00  0.00    +0.226 C 
ATOM     20  C   UNL     1      34.199 -14.905 -23.938  0.00  0.00    +0.060 C 
ATOM     21  C   UNL     1      33.876 -15.673 -25.052  0.00  0.00    +0.060 C 
ATOM     22  C   UNL     1      33.936 -13.537 -23.848  0.00  0.00    +0.016 C 
ATOM     23  C   UNL     1      33.253 -15.059 -26.152  0.00  0.00    +0.016 C 
ATOM     24  C   UNL     1      33.315 -12.942 -24.951  0.00  0.00    +0.001 C 
ATOM     25  C   UNL     1      32.978 -13.687 -26.084  0.00  0.00    +0.001 C 
ATOM     26  H   UNL     1      35.131 -15.581 -22.173  0.00  0.00    +0.149 HD
ATOM     27  H   UNL     1      34.136 -17.735 -25.495  0.00  0.00    +0.149 HD
ENDBRANCH  15  19
ENDBRANCH   1  15
TORSDOF 6
ENDMDL
MODEL 5
REMARK VINA RESULT:      -9.9      1.816      2.677
REMARK  Name = 9578005
REMARK  6 active torsions:
REMARK  status: ('A' for Active; 'I' for Inactive)
REMARK    1  A    between atoms: C_1  and  C_3
REMARK    2  A    between atoms: C_1  and  S_15
REMARK    3  A    between atoms: C_5  and  O_9
REMARK    4  A    between atoms: O_9  and  C_10
REMARK    5  A    between atoms: C_10  and  C_14
REMARK    6  A    between atoms: S_15  and  C_19
REMARK                            x       y       z     vdW  Elec       q    Type
REMARK                         _______ _______ _______ _____ _____    ______ ____
ROOT
ATOM      1  C   UNL     1      32.758 -14.143 -24.443  0.00  0.00    +0.140 C 
ENDROOT
BRANCH   1   3
ATOM      2  N   UNL     1      33.265 -14.058 -22.089  0.00  0.00    -0.247 NA
ATOM      3  C   UNL     1      33.461 -14.719 -23.248  0.00  0.00    +0.072 C 
ATOM      4  C   UNL     1      34.241 -15.851 -23.384  0.00  0.00    +0.027 C 
ATOM      5  C   UNL     1      34.869 -16.342 -22.246  0.00  0.00    +0.138 C 
ATOM      6  C   UNL     1      34.413 -16.531 -24.701  0.00  0.00    +0.035 C 
ATOM      7  C   UNL     1      34.696 -15.693 -21.028  0.00  0.00    +0.057 C 
ATOM      8  C   UNL     1      33.891 -14.565 -21.003  0.00  0.00    +0.102 C 
BRANCH   5   9
ATOM      9  O   UNL     1      35.654 -17.455 -22.302  0.00  0.00    -0.467 OA
BRANCH   9  10
ATOM     10  C   UNL     1      35.609 -18.338 -21.184  0.00  0.00    +0.308 C 
BRANCH  10  14
ATOM     11  F   UNL     1      33.392 -19.109 -21.049  0.00  0.00    -0.166 F 
ATOM     12  F   UNL     1      34.982 -20.588 -20.844  0.00  0.00    -0.166 F 
ATOM     13  F   UNL     1      34.555 -19.703 -22.796  0.00  0.00    -0.166 F 
ATOM     14  C   UNL     1      34.629 -19.447 -21.472  0.00  0.00    +0.438 C 
ENDBRANCH  10  14
ENDBRANCH   9  10
ENDBRANCH   5   9
ENDBRANCH   1   3
BRANCH   1  15
ATOM     15  S   UNL     1      33.894 -13.196 -25.497  0.00  0.00    +0.085 S 
ATOM     16  O   UNL     1      33.234 -13.064 -26.856  0.00  0.00    -0.252 OA
BRANCH  15  19
ATOM     17  N   UNL     1      32.911 -11.262 -23.733  0.00  0.00    -0.307 N 
ATOM     18  N   UNL     1      34.693 -10.635 -24.905  0.00  0.00    -0.307 N 
ATOM     19  C   UNL     1      33.840 -11.608 -24.675  0.00  0.00    +0.226 C 
ATOM     20  C   UNL     1      33.183  -9.980 -23.330  0.00  0.00    +0.060 C 
ATOM     21  C   UNL     1      34.298  -9.611 -24.075  0.00  0.00    +0.060 C 
ATOM     22  C   UNL     1      32.566  -9.138 -22.404  0.00  0.00    +0.016 C 
ATOM     23  C   UNL     1      34.846  -8.328 -23.900  0.00  0.00    +0.016 C 
ATOM     24  C   UNL     1      33.123  -7.865 -22.243  0.00  0.00    +0.001 C 
ATOM     25  C   UNL     1      34.243  -7.465 -22.977  0.00  0.00    +0.001 C 
ATOM     26  H   UNL     1      32.179 -11.832 -23.405  0.00  0.00    +0.149 HD
ATOM     27  H   UNL     1      35.450 -10.638 -25.536  0.00  0.00    +0.149 HD
ENDBRANCH  15  19
ENDBRANCH   1  15
TORSDOF 6
ENDMDL
MODEL 6
REMARK VINA RESULT:      -9.6      1.720      2.012
REMARK  Name = 9578005
REMARK  6 active torsions:
REMARK  status: ('A' for Active; 'I' for Inactive)
REMARK    1  A    between atoms: C_1  and  C_3
REMARK    2  A    between atoms: C_1  and  S_15
REMARK    3  A    between atoms: C_5  and  O_9
REMARK    4  A    between atoms: O_9  and  C_10
REMARK    5  A    between atoms: C_10  and  C_14
REMARK    6  A    between atoms: S_15  and  C_19
REMARK                            x       y       z     vdW  Elec       q    Type
REMARK                         _______ _______ _______ _____ _____    ______ ____
ROOT
ATOM      1  C   UNL     1      33.010 -13.761 -24.243  0.00  0.00    +0.140 C 
ENDROOT
BRANCH   1   3
ATOM      2  N   UNL     1      33.737 -15.791 -25.320  0.00  0.00    -0.247 NA
ATOM      3  C   UNL     1      33.731 -15.076 -24.176  0.00  0.00    +0.072 C 
ATOM      4  C   UNL     1      34.328 -15.477 -22.996  0.00  0.00    +0.027 C 
ATOM      5  C   UNL     1      34.981 -16.704 -22.989  0.00  0.00    +0.138 C 
ATOM      6  C   UNL     1      34.280 -14.634 -21.767  0.00  0.00    +0.035 C 
ATOM      7  C   UNL     1      35.014 -17.475 -24.146  0.00  0.00    +0.057 C 
ATOM      8  C   UNL     1      34.383 -16.978 -25.274  0.00  0.00    +0.102 C 
BRANCH   5   9
ATOM      9  O   UNL     1      35.594 -17.166 -21.863  0.00  0.00    -0.467 OA
BRANCH   9  10
ATOM     10  C   UNL     1      35.814 -18.572 -21.774  0.00  0.00    +0.308 C 
BRANCH  10  14
ATOM     11  F   UNL     1      33.777 -18.285 -20.635  0.00  0.00    -0.166 F 
ATOM     12  F   UNL     1      34.962 -20.049 -20.143  0.00  0.00    -0.166 F 
ATOM     13  F   UNL     1      33.909 -19.936 -22.054  0.00  0.00    -0.166 F 
ATOM     14  C   UNL     1      34.607 -19.220 -21.147  0.00  0.00    +0.438 C 
ENDBRANCH  10  14
ENDBRANCH   9  10
ENDBRANCH   5   9
ENDBRANCH   1   3
BRANCH   1  15
ATOM     15  S   UNL     1      34.008 -12.491 -25.076  0.00  0.00    +0.085 S 
ATOM     16  O   UNL     1      33.433 -12.316 -26.468  0.00  0.00    -0.252 OA
BRANCH  15  19
ATOM     17  N   UNL     1      34.190  -9.839 -24.212  0.00  0.00    -0.307 N 
ATOM     18  N   UNL     1      32.649 -11.055 -23.169  0.00  0.00    -0.307 N 
ATOM     19  C   UNL     1      33.584 -11.059 -24.093  0.00  0.00    +0.226 C 
ATOM     20  C   UNL     1      33.608  -8.992 -23.304  0.00  0.00    +0.060 C 
ATOM     21  C   UNL     1      32.650  -9.774 -22.666  0.00  0.00    +0.060 C 
ATOM     22  C   UNL     1      33.831  -7.650 -22.997  0.00  0.00    +0.016 C 
ATOM     23  C   UNL     1      31.857  -9.199 -21.658  0.00  0.00    +0.016 C 
ATOM     24  C   UNL     1      33.033  -7.094 -21.991  0.00  0.00    +0.001 C 
ATOM     25  C   UNL     1      32.063  -7.853 -21.332  0.00  0.00    +0.001 C 
ATOM     26  H   UNL     1      34.916  -9.610 -24.837  0.00  0.00    +0.149 HD
ATOM     27  H   UNL     1      32.073 -11.806 -22.896  0.00  0.00    +0.149 HD
ENDBRANCH  15  19
ENDBRANCH   1  15
TORSDOF 6
ENDMDL
MODEL 7
REMARK VINA RESULT:      -9.6      5.195      9.092
REMARK  Name = 9578005
REMARK  6 active torsions:
REMARK  status: ('A' for Active; 'I' for Inactive)
REMARK    1  A    between atoms: C_1  and  C_3
REMARK    2  A    between atoms: C_1  and  S_15
REMARK    3  A    between atoms: C_5  and  O_9
REMARK    4  A    between atoms: O_9  and  C_10
REMARK    5  A    between atoms: C_10  and  C_14
REMARK    6  A    between atoms: S_15  and  C_19
REMARK                            x       y       z     vdW  Elec       q    Type
REMARK                         _______ _______ _______ _____ _____    ______ ____
ROOT
ATOM      1  C   UNL     1      33.957 -12.365 -24.560  0.00  0.00    +0.140 C 
ENDROOT
BRANCH   1   3
ATOM      2  N   UNL     1      32.229 -12.205 -22.887  0.00  0.00    -0.247 NA
ATOM      3  C   UNL     1      33.158 -11.533 -23.599  0.00  0.00    +0.072 C 
ATOM      4  C   UNL     1      33.400 -10.177 -23.491  0.00  0.00    +0.027 C 
ATOM      5  C   UNL     1      32.631  -9.455 -22.586  0.00  0.00    +0.138 C 
ATOM      6  C   UNL     1      34.445  -9.499 -24.312  0.00  0.00    +0.035 C 
ATOM      7  C   UNL     1      31.661 -10.106 -21.831  0.00  0.00    +0.057 C 
ATOM      8  C   UNL     1      31.502 -11.469 -22.017  0.00  0.00    +0.102 C 
BRANCH   5   9
ATOM      9  O   UNL     1      32.812  -8.114 -22.425  0.00  0.00    -0.467 OA
BRANCH   9  10
ATOM     10  C   UNL     1      31.650  -7.291 -22.483  0.00  0.00    +0.308 C 
BRANCH  10  14
ATOM     11  F   UNL     1      32.722  -6.515 -24.426  0.00  0.00    -0.166 F 
ATOM     12  F   UNL     1      30.839  -5.563 -23.872  0.00  0.00    -0.166 F 
ATOM     13  F   UNL     1      30.843  -7.594 -24.680  0.00  0.00    -0.166 F 
ATOM     14  C   UNL     1      31.508  -6.736 -23.877  0.00  0.00    +0.438 C 
ENDBRANCH  10  14
ENDBRANCH   9  10
ENDBRANCH   5   9
ENDBRANCH   1   3
BRANCH   1  15
ATOM     15  S   UNL     1      33.008 -13.791 -25.163  0.00  0.00    +0.085 S 
ATOM     16  O   UNL     1      33.385 -13.993 -26.618  0.00  0.00    -0.252 OA
BRANCH  15  19
ATOM     17  N   UNL     1      33.882 -15.060 -22.831  0.00  0.00    -0.307 N 
ATOM     18  N   UNL     1      34.224 -16.211 -24.701  0.00  0.00    -0.307 N 
ATOM     19  C   UNL     1      33.747 -15.098 -24.191  0.00  0.00    +0.226 C 
ATOM     20  C   UNL     1      34.487 -16.226 -22.438  0.00  0.00    +0.060 C 
ATOM     21  C   UNL     1      34.690 -16.927 -23.623  0.00  0.00    +0.060 C 
ATOM     22  C   UNL     1      34.862 -16.714 -21.185  0.00  0.00    +0.016 C 
ATOM     23  C   UNL     1      35.303 -18.191 -23.575  0.00  0.00    +0.016 C 
ATOM     24  C   UNL     1      35.471 -17.972 -21.156  0.00  0.00    +0.001 C 
ATOM     25  C   UNL     1      35.689 -18.700 -22.329  0.00  0.00    +0.001 C 
ATOM     26  H   UNL     1      33.596 -14.327 -22.239  0.00  0.00    +0.149 HD
ATOM     27  H   UNL     1      34.244 -16.474 -25.650  0.00  0.00    +0.149 HD
ENDBRANCH  15  19
ENDBRANCH   1  15
TORSDOF 6
ENDMDL
MODEL 8
REMARK VINA RESULT:      -9.5      4.509      9.649
REMARK  Name = 9578005
REMARK  6 active torsions:
REMARK  status: ('A' for Active; 'I' for Inactive)
REMARK    1  A    between atoms: C_1  and  C_3
REMARK    2  A    between atoms: C_1  and  S_15
REMARK    3  A    between atoms: C_5  and  O_9
REMARK    4  A    between atoms: O_9  and  C_10
REMARK    5  A    between atoms: C_10  and  C_14
REMARK    6  A    between atoms: S_15  and  C_19
REMARK                            x       y       z     vdW  Elec       q    Type
REMARK                         _______ _______ _______ _____ _____    ______ ____
ROOT
ATOM      1  C   UNL     1      34.575 -19.548 -21.147  0.00  0.00    +0.140 C 
ENDROOT
BRANCH   1   3
ATOM      2  N   UNL     1      34.582 -19.261 -23.540  0.00  0.00    -0.247 NA
ATOM      3  C   UNL     1      34.649 -18.643 -22.343  0.00  0.00    +0.072 C 
ATOM      4  C   UNL     1      34.777 -17.278 -22.171  0.00  0.00    +0.027 C 
ATOM      5  C   UNL     1      34.841 -16.487 -23.312  0.00  0.00    +0.138 C 
ATOM      6  C   UNL     1      34.846 -16.662 -20.814  0.00  0.00    +0.035 C 
ATOM      7  C   UNL     1      34.775 -17.081 -24.568  0.00  0.00    +0.057 C 
ATOM      8  C   UNL     1      34.647 -18.460 -24.627  0.00  0.00    +0.102 C 
BRANCH   5   9
ATOM      9  O   UNL     1      34.966 -15.133 -23.221  0.00  0.00    -0.467 OA
BRANCH   9  10
ATOM     10  C   UNL     1      33.874 -14.348 -23.692  0.00  0.00    +0.308 C 
BRANCH  10  14
ATOM     11  F   UNL     1      33.730 -13.654 -21.450  0.00  0.00    -0.166 F 
ATOM     12  F   UNL     1      32.197 -15.025 -22.175  0.00  0.00    -0.166 F 
ATOM     13  F   UNL     1      32.193 -12.938 -22.822  0.00  0.00    -0.166 F 
ATOM     14  C   UNL     1      32.987 -13.989 -22.527  0.00  0.00    +0.438 C 
ENDBRANCH  10  14
ENDBRANCH   9  10
ENDBRANCH   5   9
ENDBRANCH   1   3
BRANCH   1  15
ATOM     15  S   UNL     1      36.144 -20.419 -20.867  0.00  0.00    +0.085 S 
ATOM     16  O   UNL     1      37.192 -19.363 -20.570  0.00  0.00    -0.252 OA
BRANCH  15  19
ATOM     17  N   UNL     1      34.576 -21.935 -19.118  0.00  0.00    -0.307 N 
ATOM     18  N   UNL     1      36.580 -21.383 -18.332  0.00  0.00    -0.307 N 
ATOM     19  C   UNL     1      35.758 -21.289 -19.353  0.00  0.00    +0.226 C 
ATOM     20  C   UNL     1      34.640 -22.481 -17.863  0.00  0.00    +0.060 C 
ATOM     21  C   UNL     1      35.900 -22.124 -17.393  0.00  0.00    +0.060 C 
ATOM     22  C   UNL     1      33.731 -23.236 -17.120  0.00  0.00    +0.016 C 
ATOM     23  C   UNL     1      36.295 -22.535 -16.108  0.00  0.00    +0.016 C 
ATOM     24  C   UNL     1      34.140 -23.636 -15.844  0.00  0.00    +0.001 C 
ATOM     25  C   UNL     1      35.399 -23.293 -15.344  0.00  0.00    +0.001 C 
ATOM     26  H   UNL     1      33.815 -21.995 -19.740  0.00  0.00    +0.149 HD
ATOM     27  H   UNL     1      37.487 -21.006 -18.256  0.00  0.00    +0.149 HD
ENDBRANCH  15  19
ENDBRANCH   1  15
TORSDOF 6
ENDMDL
MODEL 9
REMARK VINA RESULT:      -9.4      4.519      8.865
REMARK  Name = 9578005
REMARK  6 active torsions:
REMARK  status: ('A' for Active; 'I' for Inactive)
REMARK    1  A    between atoms: C_1  and  C_3
REMARK    2  A    between atoms: C_1  and  S_15
REMARK    3  A    between atoms: C_5  and  O_9
REMARK    4  A    between atoms: O_9  and  C_10
REMARK    5  A    between atoms: C_10  and  C_14
REMARK    6  A    between atoms: S_15  and  C_19
REMARK                            x       y       z     vdW  Elec       q    Type
REMARK                         _______ _______ _______ _____ _____    ______ ____
ROOT
ATOM      1  C   UNL     1      35.037 -15.982 -23.060  0.00  0.00    +0.140 C 
ENDROOT
BRANCH   1   3
ATOM      2  N   UNL     1      33.875 -15.581 -20.987  0.00  0.00    -0.247 NA
ATOM      3  C   UNL     1      34.055 -15.175 -22.262  0.00  0.00    +0.072 C 
ATOM      4  C   UNL     1      33.408 -14.101 -22.842  0.00  0.00    +0.027 C 
ATOM      5  C   UNL     1      32.508 -13.389 -22.057  0.00  0.00    +0.138 C 
ATOM      6  C   UNL     1      33.656 -13.709 -24.260  0.00  0.00    +0.035 C 
ATOM      7  C   UNL     1      32.291 -13.771 -20.738  0.00  0.00    +0.057 C 
ATOM      8  C   UNL     1      32.993 -14.864 -20.255  0.00  0.00    +0.102 C 
BRANCH   5   9
ATOM      9  O   UNL     1      31.834 -12.317 -22.561  0.00  0.00    -0.467 OA
BRANCH   9  10
ATOM     10  C   UNL     1      31.452 -11.300 -21.638  0.00  0.00    +0.308 C 
BRANCH  10  14
ATOM     11  F   UNL     1      33.021 -10.066 -22.880  0.00  0.00    -0.166 F 
ATOM     12  F   UNL     1      32.066  -9.065 -21.193  0.00  0.00    -0.166 F 
ATOM     13  F   UNL     1      30.930  -9.458 -23.019  0.00  0.00    -0.166 F 
ATOM     14  C   UNL     1      31.867  -9.958 -22.185  0.00  0.00    +0.438 C 
ENDBRANCH  10  14
ENDBRANCH   9  10
ENDBRANCH   5   9
ENDBRANCH   1   3
BRANCH   1  15
ATOM     15  S   UNL     1      34.290 -17.509 -23.698  0.00  0.00    +0.085 S 
ATOM     16  O   UNL     1      35.070 -17.903 -24.937  0.00  0.00    -0.252 OA
BRANCH  15  19
ATOM     17  N   UNL     1      33.794 -19.444 -21.742  0.00  0.00    -0.307 N 
ATOM     18  N   UNL     1      35.915 -18.799 -21.897  0.00  0.00    -0.307 N 
ATOM     19  C   UNL     1      34.701 -18.641 -22.375  0.00  0.00    +0.226 C 
ATOM     20  C   UNL     1      34.468 -20.167 -20.792  0.00  0.00    +0.060 C 
ATOM     21  C   UNL     1      35.789 -19.747 -20.909  0.00  0.00    +0.060 C 
ATOM     22  C   UNL     1      34.046 -21.125 -19.869  0.00  0.00    +0.016 C 
ATOM     23  C   UNL     1      36.763 -20.304 -20.063  0.00  0.00    +0.016 C 
ATOM     24  C   UNL     1      35.028 -21.669 -19.034  0.00  0.00    +0.001 C 
ATOM     25  C   UNL     1      36.364 -21.267 -19.127  0.00  0.00    +0.001 C 
ATOM     26  H   UNL     1      32.829 -19.493 -21.934  0.00  0.00    +0.149 HD
ATOM     27  H   UNL     1      36.737 -18.338 -22.185  0.00  0.00    +0.149 HD
ENDBRANCH  15  19
ENDBRANCH   1  15
TORSDOF 6
ENDMDL
