MODEL 1
REMARK VINA RESULT:      -8.5      0.000      0.000
REMARK  Name = 441278
REMARK  3 active torsions:
REMARK  status: ('A' for Active; 'I' for Inactive)
REMARK    1  A    between atoms: N_1  and  C_19
REMARK    2  A    between atoms: C_14  and  O_17
REMARK    3  A    between atoms: C_19  and  C_20
REMARK                            x       y       z     vdW  Elec       q    Type
REMARK                         _______ _______ _______ _____ _____    ______ ____
ROOT
ATOM      1  N   UNL     1      31.237  -6.253 -23.225  0.00  0.00    +0.391 N 
ATOM      2  C   UNL     1      31.624  -9.031 -22.366  0.00  0.00    +0.015 C 
ATOM      3  C   UNL     1      31.877  -7.807 -21.435  0.00  0.00    -0.015 C 
ATOM      4  C   UNL     1      32.339  -6.621 -22.310  0.00  0.00    -0.053 C 
ATOM      5  C   UNL     1      30.507  -8.621 -23.367  0.00  0.00    -0.019 C 
ATOM      6  C   UNL     1      33.690  -6.953 -22.981  0.00  0.00    +0.005 C 
ATOM      7  C   UNL     1      32.883  -9.376 -23.176  0.00  0.00    -0.024 C 
ATOM      8  C   UNL     1      30.821  -7.326 -24.128  0.00  0.00    -0.076 C 
ATOM      9  C   UNL     1      33.833  -8.374 -23.478  0.00  0.00    -0.028 C 
ATOM     10  C   UNL     1      31.107 -10.221 -21.527  0.00  0.00    +0.004 C 
ATOM     11  C   UNL     1      32.843  -8.081 -20.271  0.00  0.00    -0.002 C 
ATOM     12  C   UNL     1      33.095 -10.669 -23.689  0.00  0.00    +0.032 C 
ATOM     13  C   UNL     1      34.971  -8.693 -24.237  0.00  0.00    -0.002 C 
ATOM     14  C   UNL     1      34.228 -10.971 -24.448  0.00  0.00    +0.133 C 
ATOM     15  C   UNL     1      35.167  -9.984 -24.719  0.00  0.00    +0.036 C 
ATOM     16  H   UNL     1      30.450  -6.087 -22.598  0.00  0.00    -0.079 HD
ENDROOT
BRANCH  14  17
ATOM     17  O   UNL     1      34.407 -12.232 -24.927  0.00  0.00    -0.506 OA
ATOM     18  H   UNL     1      33.668 -12.792 -25.062  0.00  0.00    +0.292 HD
ENDBRANCH  14  17
BRANCH   1  19
ATOM     19  C   UNL     1      31.477  -5.010 -23.952  0.00  0.00    -0.051 C 
BRANCH  19  20
ATOM     20  C   UNL     1      32.171  -5.265 -25.258  0.00  0.00    -0.058 C 
ATOM     21  C   UNL     1      32.551  -4.369 -26.191  0.00  0.00    -0.050 C 
ATOM     22  C   UNL     1      33.245  -4.694 -27.483  0.00  0.00    +0.026 C 
ATOM     23  C   UNL     1      32.283  -2.901 -25.987  0.00  0.00    +0.026 C 
ENDBRANCH  19  20
ENDBRANCH   1  19
TORSDOF 3
ENDMDL
MODEL 2
REMARK VINA RESULT:      -8.0      0.962      1.322
REMARK  Name = 441278
REMARK  3 active torsions:
REMARK  status: ('A' for Active; 'I' for Inactive)
REMARK    1  A    between atoms: N_1  and  C_19
REMARK    2  A    between atoms: C_14  and  O_17
REMARK    3  A    between atoms: C_19  and  C_20
REMARK                            x       y       z     vdW  Elec       q    Type
REMARK                         _______ _______ _______ _____ _____    ______ ____
ROOT
ATOM      1  N   UNL     1      31.730  -6.164 -23.620  0.00  0.00    +0.391 N 
ATOM      2  C   UNL     1      31.749  -8.867 -22.479  0.00  0.00    +0.015 C 
ATOM      3  C   UNL     1      32.211  -7.603 -21.690  0.00  0.00    -0.015 C 
ATOM      4  C   UNL     1      32.803  -6.594 -22.698  0.00  0.00    -0.053 C 
ATOM      5  C   UNL     1      30.663  -8.402 -23.490  0.00  0.00    -0.019 C 
ATOM      6  C   UNL     1      34.065  -7.187 -23.362  0.00  0.00    +0.005 C 
ATOM      7  C   UNL     1      32.913  -9.473 -23.278  0.00  0.00    -0.024 C 
ATOM      8  C   UNL     1      31.129  -7.251 -24.393  0.00  0.00    -0.076 C 
ATOM      9  C   UNL     1      33.983  -8.656 -23.707  0.00  0.00    -0.028 C 
ATOM     10  C   UNL     1      31.100  -9.876 -21.505  0.00  0.00    +0.004 C 
ATOM     11  C   UNL     1      33.173  -7.896 -20.527  0.00  0.00    -0.002 C 
ATOM     12  C   UNL     1      32.917 -10.828 -23.655  0.00  0.00    +0.032 C 
ATOM     13  C   UNL     1      35.034  -9.215 -24.456  0.00  0.00    -0.002 C 
ATOM     14  C   UNL     1      33.965 -11.368 -24.405  0.00  0.00    +0.133 C 
ATOM     15  C   UNL     1      35.023 -10.562 -24.802  0.00  0.00    +0.036 C 
ATOM     16  H   UNL     1      30.999  -5.822 -22.996  0.00  0.00    -0.079 HD
ENDROOT
BRANCH  14  17
ATOM     17  O   UNL     1      33.943 -12.685 -24.750  0.00  0.00    -0.506 OA
ATOM     18  H   UNL     1      34.201 -12.947 -25.613  0.00  0.00    +0.292 HD
ENDBRANCH  14  17
BRANCH   1  19
ATOM     19  C   UNL     1      32.116  -5.050 -24.481  0.00  0.00    -0.051 C 
BRANCH  19  20
ATOM     20  C   UNL     1      30.958  -4.129 -24.736  0.00  0.00    -0.058 C 
ATOM     21  C   UNL     1      30.980  -2.881 -25.242  0.00  0.00    -0.050 C 
ATOM     22  C   UNL     1      29.777  -2.010 -25.473  0.00  0.00    +0.026 C 
ATOM     23  C   UNL     1      32.288  -2.241 -25.628  0.00  0.00    +0.026 C 
ENDBRANCH  19  20
ENDBRANCH   1  19
TORSDOF 3
ENDMDL
MODEL 3
REMARK VINA RESULT:      -6.9      2.805      5.803
REMARK  Name = 441278
REMARK  3 active torsions:
REMARK  status: ('A' for Active; 'I' for Inactive)
REMARK    1  A    between atoms: N_1  and  C_19
REMARK    2  A    between atoms: C_14  and  O_17
REMARK    3  A    between atoms: C_19  and  C_20
REMARK                            x       y       z     vdW  Elec       q    Type
REMARK                         _______ _______ _______ _____ _____    ______ ____
ROOT
ATOM      1  N   UNL     1      34.022  -9.859 -23.617  0.00  0.00    +0.391 N 
ATOM      2  C   UNL     1      33.130  -7.725 -21.812  0.00  0.00    +0.015 C 
ATOM      3  C   UNL     1      32.707  -9.216 -21.645  0.00  0.00    -0.015 C 
ATOM      4  C   UNL     1      32.657  -9.864 -23.047  0.00  0.00    -0.053 C 
ATOM      5  C   UNL     1      34.540  -7.721 -22.468  0.00  0.00    -0.019 C 
ATOM      6  C   UNL     1      31.565  -9.188 -23.904  0.00  0.00    +0.005 C 
ATOM      7  C   UNL     1      32.168  -6.981 -22.752  0.00  0.00    -0.024 C 
ATOM      8  C   UNL     1      34.604  -8.526 -23.773  0.00  0.00    -0.076 C 
ATOM      9  C   UNL     1      31.459  -7.688 -23.749  0.00  0.00    -0.028 C 
ATOM     10  C   UNL     1      33.243  -7.061 -20.422  0.00  0.00    +0.004 C 
ATOM     11  C   UNL     1      31.400  -9.423 -20.863  0.00  0.00    -0.002 C 
ATOM     12  C   UNL     1      32.014  -5.584 -22.688  0.00  0.00    +0.032 C 
ATOM     13  C   UNL     1      30.597  -6.997 -24.618  0.00  0.00    -0.002 C 
ATOM     14  C   UNL     1      31.158  -4.910 -23.563  0.00  0.00    +0.133 C 
ATOM     15  C   UNL     1      30.448  -5.617 -24.525  0.00  0.00    +0.036 C 
ATOM     16  H   UNL     1      34.580 -10.332 -22.907  0.00  0.00    -0.079 HD
ENDROOT
BRANCH  14  17
ATOM     17  O   UNL     1      31.026  -3.558 -23.475  0.00  0.00    -0.506 OA
ATOM     18  H   UNL     1      30.849  -3.053 -24.244  0.00  0.00    +0.292 HD
ENDBRANCH  14  17
BRANCH   1  19
ATOM     19  C   UNL     1      34.140 -10.637 -24.846  0.00  0.00    -0.051 C 
BRANCH  19  20
ATOM     20  C   UNL     1      33.812 -12.083 -24.611  0.00  0.00    -0.058 C 
ATOM     21  C   UNL     1      33.497 -13.027 -25.521  0.00  0.00    -0.050 C 
ATOM     22  C   UNL     1      33.178 -14.463 -25.216  0.00  0.00    +0.026 C 
ATOM     23  C   UNL     1      33.438 -12.679 -26.986  0.00  0.00    +0.026 C 
ENDBRANCH  19  20
ENDBRANCH   1  19
TORSDOF 3
ENDMDL
MODEL 4
REMARK VINA RESULT:      -6.8     17.759     19.542
REMARK  Name = 441278
REMARK  3 active torsions:
REMARK  status: ('A' for Active; 'I' for Inactive)
REMARK    1  A    between atoms: N_1  and  C_19
REMARK    2  A    between atoms: C_14  and  O_17
REMARK    3  A    between atoms: C_19  and  C_20
REMARK                            x       y       z     vdW  Elec       q    Type
REMARK                         _______ _______ _______ _____ _____    ______ ____
ROOT
ATOM      1  N   UNL     1      34.860 -23.847 -15.103  0.00  0.00    +0.391 N 
ATOM      2  C   UNL     1      36.681 -25.160 -13.214  0.00  0.00    +0.015 C 
ATOM      3  C   UNL     1      36.061 -23.751 -12.963  0.00  0.00    -0.015 C 
ATOM      4  C   UNL     1      35.850 -23.066 -14.331  0.00  0.00    -0.053 C 
ATOM      5  C   UNL     1      35.664 -25.959 -14.076  0.00  0.00    -0.019 C 
ATOM      6  C   UNL     1      37.212 -22.833 -15.022  0.00  0.00    +0.005 C 
ATOM      7  C   UNL     1      37.993 -25.051 -14.006  0.00  0.00    -0.024 C 
ATOM      8  C   UNL     1      35.256 -25.231 -15.364  0.00  0.00    -0.076 C 
ATOM      9  C   UNL     1      38.211 -23.958 -14.875  0.00  0.00    -0.028 C 
ATOM     10  C   UNL     1      36.854 -25.896 -11.866  0.00  0.00    +0.004 C 
ATOM     11  C   UNL     1      36.858 -22.870 -11.988  0.00  0.00    -0.002 C 
ATOM     12  C   UNL     1      38.975 -26.055 -13.940  0.00  0.00    +0.032 C 
ATOM     13  C   UNL     1      39.405 -23.877 -15.612  0.00  0.00    -0.002 C 
ATOM     14  C   UNL     1      40.154 -25.965 -14.684  0.00  0.00    +0.133 C 
ATOM     15  C   UNL     1      40.370 -24.875 -15.517  0.00  0.00    +0.036 C 
ATOM     16  H   UNL     1      34.054 -23.896 -14.479  0.00  0.00    -0.079 HD
ENDROOT
BRANCH  14  17
ATOM     17  O   UNL     1      41.089 -26.950 -14.596  0.00  0.00    -0.506 OA
ATOM     18  H   UNL     1      41.850 -26.925 -15.144  0.00  0.00    +0.292 HD
ENDBRANCH  14  17
BRANCH   1  19
ATOM     19  C   UNL     1      34.418 -23.181 -16.324  0.00  0.00    -0.051 C 
BRANCH  19  20
ATOM     20  C   UNL     1      32.967 -23.447 -16.599  0.00  0.00    -0.058 C 
ATOM     21  C   UNL     1      31.919 -23.306 -15.764  0.00  0.00    -0.050 C 
ATOM     22  C   UNL     1      30.484 -23.592 -16.106  0.00  0.00    +0.026 C 
ATOM     23  C   UNL     1      32.133 -22.829 -14.350  0.00  0.00    +0.026 C 
ENDBRANCH  19  20
ENDBRANCH   1  19
TORSDOF 3
ENDMDL
MODEL 5
REMARK VINA RESULT:      -6.8      8.454     11.130
REMARK  Name = 441278
REMARK  3 active torsions:
REMARK  status: ('A' for Active; 'I' for Inactive)
REMARK    1  A    between atoms: N_1  and  C_19
REMARK    2  A    between atoms: C_14  and  O_17
REMARK    3  A    between atoms: C_19  and  C_20
REMARK                            x       y       z     vdW  Elec       q    Type
REMARK                         _______ _______ _______ _____ _____    ______ ____
ROOT
ATOM      1  N   UNL     1      33.865 -16.449 -21.760  0.00  0.00    +0.391 N 
ATOM      2  C   UNL     1      35.906 -18.556 -21.750  0.00  0.00    +0.015 C 
ATOM      3  C   UNL     1      35.096 -18.157 -23.022  0.00  0.00    -0.015 C 
ATOM      4  C   UNL     1      33.700 -17.673 -22.573  0.00  0.00    -0.053 C 
ATOM      5  C   UNL     1      36.026 -17.282 -20.868  0.00  0.00    -0.019 C 
ATOM      6  C   UNL     1      32.928 -18.829 -21.902  0.00  0.00    +0.005 C 
ATOM      7  C   UNL     1      35.162 -19.628 -20.938  0.00  0.00    -0.024 C 
ATOM      8  C   UNL     1      34.672 -16.631 -20.554  0.00  0.00    -0.076 C 
ATOM      9  C   UNL     1      33.754 -19.722 -21.003  0.00  0.00    -0.028 C 
ATOM     10  C   UNL     1      37.329 -18.996 -22.160  0.00  0.00    +0.004 C 
ATOM     11  C   UNL     1      35.013 -19.257 -24.093  0.00  0.00    -0.002 C 
ATOM     12  C   UNL     1      35.847 -20.495 -20.066  0.00  0.00    +0.032 C 
ATOM     13  C   UNL     1      33.080 -20.690 -20.241  0.00  0.00    -0.002 C 
ATOM     14  C   UNL     1      35.163 -21.449 -19.309  0.00  0.00    +0.133 C 
ATOM     15  C   UNL     1      33.781 -21.548 -19.399  0.00  0.00    +0.036 C 
ATOM     16  H   UNL     1      34.399 -15.827 -22.367  0.00  0.00    -0.079 HD
ENDROOT
BRANCH  14  17
ATOM     17  O   UNL     1      35.853 -22.277 -18.478  0.00  0.00    -0.506 OA
ATOM     18  H   UNL     1      35.546 -23.149 -18.324  0.00  0.00    +0.292 HD
ENDBRANCH  14  17
BRANCH   1  19
ATOM     19  C   UNL     1      32.605 -15.777 -21.459  0.00  0.00    -0.051 C 
BRANCH  19  20
ATOM     20  C   UNL     1      32.687 -14.305 -21.746  0.00  0.00    -0.058 C 
ATOM     21  C   UNL     1      32.887 -13.695 -22.930  0.00  0.00    -0.050 C 
ATOM     22  C   UNL     1      32.959 -12.209 -23.147  0.00  0.00    +0.026 C 
ATOM     23  C   UNL     1      33.065 -14.510 -24.184  0.00  0.00    +0.026 C 
ENDBRANCH  19  20
ENDBRANCH   1  19
TORSDOF 3
ENDMDL
MODEL 6
REMARK VINA RESULT:      -6.7      9.358     12.879
REMARK  Name = 441278
REMARK  3 active torsions:
REMARK  status: ('A' for Active; 'I' for Inactive)
REMARK    1  A    between atoms: N_1  and  C_19
REMARK    2  A    between atoms: C_14  and  O_17
REMARK    3  A    between atoms: C_19  and  C_20
REMARK                            x       y       z     vdW  Elec       q    Type
REMARK                         _______ _______ _______ _____ _____    ______ ____
ROOT
ATOM      1  N   UNL     1      35.679 -19.561 -20.318  0.00  0.00    +0.391 N 
ATOM      2  C   UNL     1      34.128 -17.300 -21.363  0.00  0.00    +0.015 C 
ATOM      3  C   UNL     1      33.481 -18.509 -20.620  0.00  0.00    -0.015 C 
ATOM      4  C   UNL     1      34.337 -19.764 -20.903  0.00  0.00    -0.053 C 
ATOM      5  C   UNL     1      35.562 -17.126 -20.788  0.00  0.00    -0.019 C 
ATOM      6  C   UNL     1      34.302 -20.100 -22.410  0.00  0.00    +0.005 C 
ATOM      7  C   UNL     1      34.251 -17.581 -22.869  0.00  0.00    -0.024 C 
ATOM      8  C   UNL     1      36.403 -18.409 -20.856  0.00  0.00    -0.076 C 
ATOM      9  C   UNL     1      34.359 -18.909 -23.339  0.00  0.00    -0.028 C 
ATOM     10  C   UNL     1      33.326 -16.016 -21.056  0.00  0.00    +0.004 C 
ATOM     11  C   UNL     1      31.995 -18.734 -20.945  0.00  0.00    -0.002 C 
ATOM     12  C   UNL     1      34.323 -16.535 -23.806  0.00  0.00    +0.032 C 
ATOM     13  C   UNL     1      34.493 -19.156 -24.716  0.00  0.00    -0.002 C 
ATOM     14  C   UNL     1      34.463 -16.794 -25.172  0.00  0.00    +0.133 C 
ATOM     15  C   UNL     1      34.544 -18.104 -25.626  0.00  0.00    +0.036 C 
ATOM     16  H   UNL     1      35.485 -19.342 -19.341  0.00  0.00    -0.079 HD
ENDROOT
BRANCH  14  17
ATOM     17  O   UNL     1      34.525 -15.761 -26.056  0.00  0.00    -0.506 OA
ATOM     18  H   UNL     1      34.023 -15.791 -26.847  0.00  0.00    +0.292 HD
ENDBRANCH  14  17
BRANCH   1  19
ATOM     19  C   UNL     1      36.507 -20.762 -20.333  0.00  0.00    -0.051 C 
BRANCH  19  20
ATOM     20  C   UNL     1      36.819 -21.230 -18.941  0.00  0.00    -0.058 C 
ATOM     21  C   UNL     1      36.038 -21.940 -18.104  0.00  0.00    -0.050 C 
ATOM     22  C   UNL     1      36.414 -22.377 -16.716  0.00  0.00    +0.026 C 
ATOM     23  C   UNL     1      34.655 -22.363 -18.530  0.00  0.00    +0.026 C 
ENDBRANCH  19  20
ENDBRANCH   1  19
TORSDOF 3
ENDMDL
MODEL 7
REMARK VINA RESULT:      -6.6     16.450     19.077
REMARK  Name = 441278
REMARK  3 active torsions:
REMARK  status: ('A' for Active; 'I' for Inactive)
REMARK    1  A    between atoms: N_1  and  C_19
REMARK    2  A    between atoms: C_14  and  O_17
REMARK    3  A    between atoms: C_19  and  C_20
REMARK                            x       y       z     vdW  Elec       q    Type
REMARK                         _______ _______ _______ _____ _____    ______ ____
ROOT
ATOM      1  N   UNL     1      36.473 -23.354 -16.355  0.00  0.00    +0.391 N 
ATOM      2  C   UNL     1      37.755 -24.759 -14.122  0.00  0.00    +0.015 C 
ATOM      3  C   UNL     1      37.141 -25.493 -15.353  0.00  0.00    -0.015 C 
ATOM      4  C   UNL     1      35.955 -24.653 -15.875  0.00  0.00    -0.053 C 
ATOM      5  C   UNL     1      38.244 -23.369 -14.617  0.00  0.00    -0.019 C 
ATOM      6  C   UNL     1      34.845 -24.581 -14.804  0.00  0.00    +0.005 C 
ATOM      7  C   UNL     1      36.695 -24.529 -13.034  0.00  0.00    -0.024 C 
ATOM      8  C   UNL     1      37.153 -22.561 -15.331  0.00  0.00    -0.076 C 
ATOM      9  C   UNL     1      35.329 -24.422 -13.381  0.00  0.00    -0.028 C 
ATOM     10  C   UNL     1      38.980 -25.547 -13.608  0.00  0.00    +0.004 C 
ATOM     11  C   UNL     1      36.746 -26.955 -15.090  0.00  0.00    -0.002 C 
ATOM     12  C   UNL     1      37.053 -24.358 -11.684  0.00  0.00    +0.032 C 
ATOM     13  C   UNL     1      34.368 -24.190 -12.382  0.00  0.00    -0.002 C 
ATOM     14  C   UNL     1      36.088 -24.121 -10.703  0.00  0.00    +0.133 C 
ATOM     15  C   UNL     1      34.746 -24.041 -11.051  0.00  0.00    +0.036 C 
ATOM     16  H   UNL     1      37.189 -23.616 -17.033  0.00  0.00    -0.079 HD
ENDROOT
BRANCH  14  17
ATOM     17  O   UNL     1      36.465 -23.964  -9.404  0.00  0.00    -0.506 OA
ATOM     18  H   UNL     1      37.221 -23.451  -9.194  0.00  0.00    +0.292 HD
ENDBRANCH  14  17
BRANCH   1  19
ATOM     19  C   UNL     1      35.478 -22.560 -17.069  0.00  0.00    -0.051 C 
BRANCH  19  20
ATOM     20  C   UNL     1      36.094 -21.809 -18.213  0.00  0.00    -0.058 C 
ATOM     21  C   UNL     1      35.491 -21.327 -19.318  0.00  0.00    -0.050 C 
ATOM     22  C   UNL     1      36.172 -20.580 -20.430  0.00  0.00    +0.026 C 
ATOM     23  C   UNL     1      34.011 -21.521 -19.520  0.00  0.00    +0.026 C 
ENDBRANCH  19  20
ENDBRANCH   1  19
TORSDOF 3
ENDMDL
MODEL 8
REMARK VINA RESULT:      -6.4     17.348     19.512
REMARK  Name = 441278
REMARK  3 active torsions:
REMARK  status: ('A' for Active; 'I' for Inactive)
REMARK    1  A    between atoms: N_1  and  C_19
REMARK    2  A    between atoms: C_14  and  O_17
REMARK    3  A    between atoms: C_19  and  C_20
REMARK                            x       y       z     vdW  Elec       q    Type
REMARK                         _______ _______ _______ _____ _____    ______ ____
ROOT
ATOM      1  N   UNL     1      33.657 -23.874 -13.775  0.00  0.00    +0.391 N 
ATOM      2  C   UNL     1      36.483 -23.137 -14.058  0.00  0.00    +0.015 C 
ATOM      3  C   UNL     1      35.390 -22.745 -15.098  0.00  0.00    -0.015 C 
ATOM      4  C   UNL     1      34.309 -23.848 -15.103  0.00  0.00    -0.053 C 
ATOM      5  C   UNL     1      35.783 -23.224 -12.672  0.00  0.00    -0.019 C 
ATOM      6  C   UNL     1      34.917 -25.184 -15.582  0.00  0.00    +0.005 C 
ATOM      7  C   UNL     1      37.076 -24.518 -14.377  0.00  0.00    -0.024 C 
ATOM      8  C   UNL     1      34.566 -24.158 -12.664  0.00  0.00    -0.076 C 
ATOM      9  C   UNL     1      36.310 -25.479 -15.074  0.00  0.00    -0.028 C 
ATOM     10  C   UNL     1      37.554 -22.026 -13.989  0.00  0.00    +0.004 C 
ATOM     11  C   UNL     1      35.929 -22.454 -16.508  0.00  0.00    -0.002 C 
ATOM     12  C   UNL     1      38.360 -24.885 -13.934  0.00  0.00    +0.032 C 
ATOM     13  C   UNL     1      36.852 -26.747 -15.343  0.00  0.00    -0.002 C 
ATOM     14  C   UNL     1      38.884 -26.152 -14.203  0.00  0.00    +0.133 C 
ATOM     15  C   UNL     1      38.132 -27.080 -14.910  0.00  0.00    +0.036 C 
ATOM     16  H   UNL     1      33.340 -22.914 -13.644  0.00  0.00    -0.079 HD
ENDROOT
BRANCH  14  17
ATOM     17  O   UNL     1      40.132 -26.477 -13.766  0.00  0.00    -0.506 OA
ATOM     18  H   UNL     1      40.315 -27.349 -13.475  0.00  0.00    +0.292 HD
ENDBRANCH  14  17
BRANCH   1  19
ATOM     19  C   UNL     1      32.475 -24.728 -13.726  0.00  0.00    -0.051 C 
BRANCH  19  20
ATOM     20  C   UNL     1      31.212 -23.920 -13.810  0.00  0.00    -0.058 C 
ATOM     21  C   UNL     1      30.618 -23.411 -14.908  0.00  0.00    -0.050 C 
ATOM     22  C   UNL     1      29.348 -22.608 -14.921  0.00  0.00    +0.026 C 
ATOM     23  C   UNL     1      31.226 -23.626 -16.269  0.00  0.00    +0.026 C 
ENDBRANCH  19  20
ENDBRANCH   1  19
TORSDOF 3
ENDMDL
MODEL 9
REMARK VINA RESULT:      -6.4      2.675      6.057
REMARK  Name = 441278
REMARK  3 active torsions:
REMARK  status: ('A' for Active; 'I' for Inactive)
REMARK    1  A    between atoms: N_1  and  C_19
REMARK    2  A    between atoms: C_14  and  O_17
REMARK    3  A    between atoms: C_19  and  C_20
REMARK                            x       y       z     vdW  Elec       q    Type
REMARK                         _______ _______ _______ _____ _____    ______ ____
ROOT
ATOM      1  N   UNL     1      32.427 -10.179 -22.528  0.00  0.00    +0.391 N 
ATOM      2  C   UNL     1      34.014  -7.814 -23.231  0.00  0.00    +0.015 C 
ATOM      3  C   UNL     1      33.692  -8.221 -21.760  0.00  0.00    -0.015 C 
ATOM      4  C   UNL     1      32.320  -8.930 -21.745  0.00  0.00    -0.053 C 
ATOM      5  C   UNL     1      34.066  -9.125 -24.065  0.00  0.00    -0.019 C 
ATOM      6  C   UNL     1      31.212  -7.950 -22.186  0.00  0.00    +0.005 C 
ATOM      7  C   UNL     1      32.904  -6.925 -23.812  0.00  0.00    -0.024 C 
ATOM      8  C   UNL     1      32.800  -9.982 -23.929  0.00  0.00    -0.076 C 
ATOM      9  C   UNL     1      31.582  -7.024 -23.323  0.00  0.00    -0.028 C 
ATOM     10  C   UNL     1      35.408  -7.149 -23.290  0.00  0.00    +0.004 C 
ATOM     11  C   UNL     1      33.758  -7.062 -20.751  0.00  0.00    -0.002 C 
ATOM     12  C   UNL     1      33.154  -6.043 -24.879  0.00  0.00    +0.032 C 
ATOM     13  C   UNL     1      30.569  -6.223 -23.875  0.00  0.00    -0.002 C 
ATOM     14  C   UNL     1      32.135  -5.257 -25.423  0.00  0.00    +0.133 C 
ATOM     15  C   UNL     1      30.844  -5.345 -24.918  0.00  0.00    +0.036 C 
ATOM     16  H   UNL     1      33.208 -10.670 -22.093  0.00  0.00    -0.079 HD
ENDROOT
BRANCH  14  17
ATOM     17  O   UNL     1      32.408  -4.409 -26.452  0.00  0.00    -0.506 OA
ATOM     18  H   UNL     1      33.285  -4.109 -26.591  0.00  0.00    +0.292 HD
ENDBRANCH  14  17
BRANCH   1  19
ATOM     19  C   UNL     1      31.256 -11.043 -22.407  0.00  0.00    -0.051 C 
BRANCH  19  20
ATOM     20  C   UNL     1      31.540 -12.230 -21.534  0.00  0.00    -0.058 C 
ATOM     21  C   UNL     1      32.187 -13.368 -21.855  0.00  0.00    -0.050 C 
ATOM     22  C   UNL     1      32.437 -14.523 -20.927  0.00  0.00    +0.026 C 
ATOM     23  C   UNL     1      32.728 -13.566 -23.247  0.00  0.00    +0.026 C 
ENDBRANCH  19  20
ENDBRANCH   1  19
TORSDOF 3
ENDMDL
