MODEL 1
REMARK VINA RESULT:      -7.5      0.000      0.000
REMARK  Name = 5460316
REMARK  9 active torsions:
REMARK  status: ('A' for Active; 'I' for Inactive)
REMARK    1  A    between atoms: C_6  and  C_26
REMARK    2  A    between atoms: C_7  and  O_20
REMARK    3  A    between atoms: C_11  and  O_22
REMARK    4  A    between atoms: C_19  and  O_24
REMARK    5  A    between atoms: C_26  and  C_28
REMARK    6  A    between atoms: C_28  and  C_29
REMARK    7  A    between atoms: C_29  and  C_32
REMARK    8  A    between atoms: N_31  and  C_34
REMARK    9  A    between atoms: C_34  and  C_37
REMARK                            x       y       z     vdW  Elec       q    Type
REMARK                         _______ _______ _______ _____ _____    ______ ____
ROOT
ATOM      1  C   UNL     1      35.205 -22.196 -18.379  0.00  0.00    +0.025 C 
ATOM      2  C   UNL     1      34.201 -22.350 -17.212  0.00  0.00    +0.005 C 
ATOM      3  C   UNL     1      34.519 -23.542 -16.297  0.00  0.00    +0.027 C 
ATOM      4  C   UNL     1      35.952 -23.353 -15.696  0.00  0.00    +0.005 C 
ATOM      5  C   UNL     1      36.347 -24.548 -14.743  0.00  0.00    +0.000 C 
ATOM      6  C   UNL     1      34.547 -20.993 -19.104  0.00  0.00    +0.002 C 
ATOM      7  C   UNL     1      36.612 -21.950 -17.798  0.00  0.00    +0.110 C 
ATOM      8  C   UNL     1      37.013 -23.053 -16.796  0.00  0.00    +0.029 C 
ATOM      9  C   UNL     1      35.265 -24.693 -13.620  0.00  0.00    +0.005 C 
ATOM     10  C   UNL     1      32.838 -22.303 -17.900  0.00  0.00    +0.000 C 
ATOM     11  C   UNL     1      33.455 -23.734 -15.198  0.00  0.00    +0.110 C 
ATOM     12  C   UNL     1      33.037 -21.324 -19.071  0.00  0.00    +0.000 C 
ATOM     13  C   UNL     1      33.839 -24.822 -14.192  0.00  0.00    +0.029 C 
ATOM     14  C   UNL     1      37.738 -24.345 -14.072  0.00  0.00    +0.002 C 
ATOM     15  C   UNL     1      35.263 -23.436 -19.311  0.00  0.00    +0.002 C 
ATOM     16  C   UNL     1      35.342 -23.570 -12.564  0.00  0.00    +0.029 C 
ATOM     17  C   UNL     1      36.449 -25.884 -15.528  0.00  0.00    +0.000 C 
ATOM     18  C   UNL     1      37.779 -23.211 -13.056  0.00  0.00    +0.029 C 
ATOM     19  C   UNL     1      36.738 -23.427 -11.965  0.00  0.00    +0.111 C 
ENDROOT
BRANCH   7  20
ATOM     20  O   UNL     1      36.715 -20.676 -17.161  0.00  0.00    -0.384 OA
ATOM     21  H   UNL     1      37.366 -20.131 -17.631  0.00  0.00    +0.210 HD
ENDBRANCH   7  20
BRANCH  11  22
ATOM     22  O   UNL     1      33.211 -22.504 -14.524  0.00  0.00    -0.384 OA
ATOM     23  H   UNL     1      33.335 -22.627 -13.570  0.00  0.00    +0.210 HD
ENDBRANCH  11  22
BRANCH  19  24
ATOM     24  O   UNL     1      36.769 -22.310 -11.083  0.00  0.00    -0.384 OA
ATOM     25  H   UNL     1      37.650 -22.237 -10.685  0.00  0.00    +0.210 HD
ENDBRANCH  19  24
BRANCH   6  26
ATOM     26  C   UNL     1      35.056 -20.686 -20.505  0.00  0.00    +0.001 C 
ATOM     27  C   UNL     1      36.435 -20.022 -20.429  0.00  0.00    +0.000 C 
BRANCH  26  28
ATOM     28  C   UNL     1      34.096 -19.780 -21.304  0.00  0.00    +0.010 C 
BRANCH  28  29
ATOM     29  C   UNL     1      34.762 -18.509 -21.832  0.00  0.00    +0.085 C 
BRANCH  29  32
ATOM     30  O   UNL     1      34.957 -19.446 -24.056  0.00  0.00    -0.275 OA
ATOM     31  N   UNL     1      34.585 -17.165 -23.817  0.00  0.00    -0.295 N 
ATOM     32  C   UNL     1      34.786 -18.456 -23.350  0.00  0.00    +0.223 C 
ATOM     33  H   UNL     1      34.458 -16.443 -23.160  0.00  0.00    +0.150 HD
BRANCH  31  34
ATOM     34  C   UNL     1      34.552 -16.830 -25.222  0.00  0.00    +0.205 C 
BRANCH  34  37
ATOM     35  O   UNL     1      33.304 -14.978 -24.476  0.00  0.00    -0.244 OA
ATOM     36  O   UNL     1      33.446 -15.391 -26.722  0.00  0.00    -0.244 OA
ATOM     37  C   UNL     1      33.679 -15.615 -25.501  0.00  0.00    +0.385 C 
ENDBRANCH  34  37
ENDBRANCH  31  34
ENDBRANCH  29  32
ENDBRANCH  28  29
ENDBRANCH  26  28
ENDBRANCH   6  26
TORSDOF 9
ENDMDL
MODEL 2
REMARK VINA RESULT:      -6.8      6.303     13.884
REMARK  Name = 5460316
REMARK  9 active torsions:
REMARK  status: ('A' for Active; 'I' for Inactive)
REMARK    1  A    between atoms: C_6  and  C_26
REMARK    2  A    between atoms: C_7  and  O_20
REMARK    3  A    between atoms: C_11  and  O_22
REMARK    4  A    between atoms: C_19  and  O_24
REMARK    5  A    between atoms: C_26  and  C_28
REMARK    6  A    between atoms: C_28  and  C_29
REMARK    7  A    between atoms: C_29  and  C_32
REMARK    8  A    between atoms: N_31  and  C_34
REMARK    9  A    between atoms: C_34  and  C_37
REMARK                            x       y       z     vdW  Elec       q    Type
REMARK                         _______ _______ _______ _____ _____    ______ ____
ROOT
ATOM      1  C   UNL     1      33.580 -12.113 -24.078  0.00  0.00    +0.025 C 
ATOM      2  C   UNL     1      32.472 -11.510 -23.181  0.00  0.00    +0.005 C 
ATOM      3  C   UNL     1      32.859 -10.153 -22.574  0.00  0.00    +0.027 C 
ATOM      4  C   UNL     1      33.160  -9.146 -23.735  0.00  0.00    +0.005 C 
ATOM      5  C   UNL     1      33.567  -7.725 -23.183  0.00  0.00    +0.000 C 
ATOM      6  C   UNL     1      32.896 -13.460 -24.431  0.00  0.00    +0.002 C 
ATOM      7  C   UNL     1      33.842 -11.156 -25.258  0.00  0.00    +0.110 C 
ATOM      8  C   UNL     1      34.168  -9.729 -24.769  0.00  0.00    +0.029 C 
ATOM      9  C   UNL     1      32.438  -7.195 -22.237  0.00  0.00    +0.005 C 
ATOM     10  C   UNL     1      32.112 -12.655 -22.235  0.00  0.00    +0.000 C 
ATOM     11  C   UNL     1      31.783  -9.616 -21.611  0.00  0.00    +0.110 C 
ATOM     12  C   UNL     1      32.280 -13.923 -23.091  0.00  0.00    +0.000 C 
ATOM     13  C   UNL     1      32.088  -8.199 -21.120  0.00  0.00    +0.029 C 
ATOM     14  C   UNL     1      33.797  -6.683 -24.318  0.00  0.00    +0.002 C 
ATOM     15  C   UNL     1      34.918 -12.354 -23.327  0.00  0.00    +0.002 C 
ATOM     16  C   UNL     1      31.175  -6.748 -23.001  0.00  0.00    +0.029 C 
ATOM     17  C   UNL     1      34.904  -7.790 -22.395  0.00  0.00    +0.000 C 
ATOM     18  C   UNL     1      32.530  -6.290 -25.066  0.00  0.00    +0.029 C 
ATOM     19  C   UNL     1      31.485  -5.740 -24.104  0.00  0.00    +0.111 C 
ENDROOT
BRANCH   7  20
ATOM     20  O   UNL     1      32.738 -11.103 -26.162  0.00  0.00    -0.384 OA
ATOM     21  H   UNL     1      32.992 -11.506 -27.007  0.00  0.00    +0.210 HD
ENDBRANCH   7  20
BRANCH  11  22
ATOM     22  O   UNL     1      30.500  -9.658 -22.228  0.00  0.00    -0.384 OA
ATOM     23  H   UNL     1      30.522  -9.154 -23.057  0.00  0.00    +0.210 HD
ENDBRANCH  11  22
BRANCH  19  24
ATOM     24  O   UNL     1      30.299  -5.453 -24.838  0.00  0.00    -0.384 OA
ATOM     25  H   UNL     1      30.159  -6.142 -25.506  0.00  0.00    +0.210 HD
ENDBRANCH  19  24
BRANCH   6  26
ATOM     26  C   UNL     1      33.779 -14.519 -25.075  0.00  0.00    +0.001 C 
ATOM     27  C   UNL     1      33.273 -14.838 -26.486  0.00  0.00    +0.000 C 
BRANCH  26  28
ATOM     28  C   UNL     1      33.847 -15.821 -24.250  0.00  0.00    +0.010 C 
BRANCH  28  29
ATOM     29  C   UNL     1      34.258 -17.040 -25.076  0.00  0.00    +0.085 C 
BRANCH  29  32
ATOM     30  O   UNL     1      34.663 -19.327 -24.391  0.00  0.00    -0.275 OA
ATOM     31  N   UNL     1      35.731 -17.601 -23.261  0.00  0.00    -0.295 N 
ATOM     32  C   UNL     1      34.886 -18.131 -24.225  0.00  0.00    +0.223 C 
ATOM     33  H   UNL     1      35.836 -16.623 -23.217  0.00  0.00    +0.150 HD
BRANCH  31  34
ATOM     34  C   UNL     1      36.466 -18.415 -22.321  0.00  0.00    +0.205 C 
BRANCH  34  37
ATOM     35  O   UNL     1      35.881 -19.553 -20.344  0.00  0.00    -0.244 OA
ATOM     36  O   UNL     1      35.267 -17.362 -20.590  0.00  0.00    -0.244 OA
ATOM     37  C   UNL     1      35.804 -18.447 -20.951  0.00  0.00    +0.385 C 
ENDBRANCH  34  37
ENDBRANCH  31  34
ENDBRANCH  29  32
ENDBRANCH  28  29
ENDBRANCH  26  28
ENDBRANCH   6  26
TORSDOF 9
ENDMDL
MODEL 3
REMARK VINA RESULT:      -6.4      5.088     11.784
REMARK  Name = 5460316
REMARK  9 active torsions:
REMARK  status: ('A' for Active; 'I' for Inactive)
REMARK    1  A    between atoms: C_6  and  C_26
REMARK    2  A    between atoms: C_7  and  O_20
REMARK    3  A    between atoms: C_11  and  O_22
REMARK    4  A    between atoms: C_19  and  O_24
REMARK    5  A    between atoms: C_26  and  C_28
REMARK    6  A    between atoms: C_28  and  C_29
REMARK    7  A    between atoms: C_29  and  C_32
REMARK    8  A    between atoms: N_31  and  C_34
REMARK    9  A    between atoms: C_34  and  C_37
REMARK                            x       y       z     vdW  Elec       q    Type
REMARK                         _______ _______ _______ _____ _____    ______ ____
ROOT
ATOM      1  C   UNL     1      33.673 -14.690 -22.111  0.00  0.00    +0.025 C 
ATOM      2  C   UNL     1      33.772 -13.400 -22.959  0.00  0.00    +0.005 C 
ATOM      3  C   UNL     1      32.583 -12.449 -22.752  0.00  0.00    +0.027 C 
ATOM      4  C   UNL     1      32.514 -12.045 -21.240  0.00  0.00    +0.005 C 
ATOM      5  C   UNL     1      31.310 -11.066 -20.953  0.00  0.00    +0.000 C 
ATOM      6  C   UNL     1      34.948 -15.412 -22.622  0.00  0.00    +0.002 C 
ATOM      7  C   UNL     1      33.665 -14.306 -20.617  0.00  0.00    +0.110 C 
ATOM      8  C   UNL     1      32.551 -13.287 -20.300  0.00  0.00    +0.029 C 
ATOM      9  C   UNL     1      31.431  -9.811 -21.881  0.00  0.00    +0.005 C 
ATOM     10  C   UNL     1      34.054 -13.916 -24.369  0.00  0.00    +0.000 C 
ATOM     11  C   UNL     1      32.653 -11.217 -23.675  0.00  0.00    +0.110 C 
ATOM     12  C   UNL     1      34.920 -15.169 -24.149  0.00  0.00    +0.000 C 
ATOM     13  C   UNL     1      31.558 -10.192 -23.370  0.00  0.00    +0.029 C 
ATOM     14  C   UNL     1      31.267 -10.588 -19.471  0.00  0.00    +0.002 C 
ATOM     15  C   UNL     1      32.404 -15.532 -22.414  0.00  0.00    +0.002 C 
ATOM     16  C   UNL     1      32.564  -8.854 -21.452  0.00  0.00    +0.029 C 
ATOM     17  C   UNL     1      29.946 -11.762 -21.211  0.00  0.00    +0.000 C 
ATOM     18  C   UNL     1      32.415  -9.668 -19.080  0.00  0.00    +0.029 C 
ATOM     19  C   UNL     1      32.458  -8.444 -19.986  0.00  0.00    +0.111 C 
ENDROOT
BRANCH   7  20
ATOM     20  O   UNL     1      34.921 -13.779 -20.191  0.00  0.00    -0.384 OA
ATOM     21  H   UNL     1      34.895 -13.613 -19.236  0.00  0.00    +0.210 HD
ENDBRANCH   7  20
BRANCH  11  22
ATOM     22  O   UNL     1      33.937 -10.606 -23.589  0.00  0.00    -0.384 OA
ATOM     23  H   UNL     1      33.856  -9.654 -23.757  0.00  0.00    +0.210 HD
ENDBRANCH  11  22
BRANCH  19  24
ATOM     24  O   UNL     1      33.586  -7.653 -19.627  0.00  0.00    -0.384 OA
ATOM     25  H   UNL     1      33.513  -7.392 -18.696  0.00  0.00    +0.210 HD
ENDBRANCH  19  24
BRANCH   6  26
ATOM     26  C   UNL     1      35.085 -16.883 -22.258  0.00  0.00    +0.001 C 
ATOM     27  C   UNL     1      34.849 -17.754 -23.496  0.00  0.00    +0.000 C 
BRANCH  26  28
ATOM     28  C   UNL     1      34.115 -17.313 -21.138  0.00  0.00    +0.010 C 
BRANCH  28  29
ATOM     29  C   UNL     1      33.673 -18.772 -21.247  0.00  0.00    +0.085 C 
BRANCH  29  32
ATOM     30  O   UNL     1      35.816 -19.465 -20.358  0.00  0.00    -0.275 OA
ATOM     31  N   UNL     1      33.990 -20.885 -20.143  0.00  0.00    -0.295 N 
ATOM     32  C   UNL     1      34.630 -19.721 -20.544  0.00  0.00    +0.223 C 
ATOM     33  H   UNL     1      33.031 -20.986 -20.345  0.00  0.00    +0.150 HD
BRANCH  31  34
ATOM     34  C   UNL     1      34.663 -21.955 -19.444  0.00  0.00    +0.205 C 
BRANCH  34  37
ATOM     35  O   UNL     1      32.551 -22.366 -18.488  0.00  0.00    -0.244 OA
ATOM     36  O   UNL     1      34.418 -23.199 -17.460  0.00  0.00    -0.244 OA
ATOM     37  C   UNL     1      33.792 -22.564 -18.355  0.00  0.00    +0.385 C 
ENDBRANCH  34  37
ENDBRANCH  31  34
ENDBRANCH  29  32
ENDBRANCH  28  29
ENDBRANCH  26  28
ENDBRANCH   6  26
TORSDOF 9
ENDMDL
MODEL 4
REMARK VINA RESULT:      -6.2      3.640      9.454
REMARK  Name = 5460316
REMARK  9 active torsions:
REMARK  status: ('A' for Active; 'I' for Inactive)
REMARK    1  A    between atoms: C_6  and  C_26
REMARK    2  A    between atoms: C_7  and  O_20
REMARK    3  A    between atoms: C_11  and  O_22
REMARK    4  A    between atoms: C_19  and  O_24
REMARK    5  A    between atoms: C_26  and  C_28
REMARK    6  A    between atoms: C_28  and  C_29
REMARK    7  A    between atoms: C_29  and  C_32
REMARK    8  A    between atoms: N_31  and  C_34
REMARK    9  A    between atoms: C_34  and  C_37
REMARK                            x       y       z     vdW  Elec       q    Type
REMARK                         _______ _______ _______ _____ _____    ______ ____
ROOT
ATOM      1  C   UNL     1      35.290 -23.458 -15.439  0.00  0.00    +0.025 C 
ATOM      2  C   UNL     1      36.196 -22.460 -16.199  0.00  0.00    +0.005 C 
ATOM      3  C   UNL     1      36.061 -22.565 -17.725  0.00  0.00    +0.027 C 
ATOM      4  C   UNL     1      34.572 -22.287 -18.124  0.00  0.00    +0.005 C 
ATOM      5  C   UNL     1      34.360 -22.380 -19.685  0.00  0.00    +0.000 C 
ATOM      6  C   UNL     1      35.738 -23.133 -13.989  0.00  0.00    +0.002 C 
ATOM      7  C   UNL     1      33.817 -23.155 -15.779  0.00  0.00    +0.110 C 
ATOM      8  C   UNL     1      33.575 -23.157 -17.302  0.00  0.00    +0.029 C 
ATOM      9  C   UNL     1      35.342 -21.394 -20.400  0.00  0.00    +0.005 C 
ATOM     10  C   UNL     1      37.573 -22.673 -15.572  0.00  0.00    +0.000 C 
ATOM     11  C   UNL     1      37.039 -21.629 -18.463  0.00  0.00    +0.110 C 
ATOM     12  C   UNL     1      37.274 -23.001 -14.099  0.00  0.00    +0.000 C 
ATOM     13  C   UNL     1      36.808 -21.614 -19.976  0.00  0.00    +0.029 C 
ATOM     14  C   UNL     1      32.903 -22.032 -20.114  0.00  0.00    +0.002 C 
ATOM     15  C   UNL     1      35.584 -24.944 -15.785  0.00  0.00    +0.002 C 
ATOM     16  C   UNL     1      34.932 -19.915 -20.238  0.00  0.00    +0.029 C 
ATOM     17  C   UNL     1      34.618 -23.822 -20.202  0.00  0.00    +0.000 C 
ATOM     18  C   UNL     1      32.529 -20.570 -19.913  0.00  0.00    +0.029 C 
ATOM     19  C   UNL     1      33.490 -19.659 -20.666  0.00  0.00    +0.111 C 
ENDROOT
BRANCH   7  20
ATOM     20  O   UNL     1      33.387 -21.907 -15.234  0.00  0.00    -0.384 OA
ATOM     21  H   UNL     1      34.143 -21.451 -14.833  0.00  0.00    +0.210 HD
ENDBRANCH   7  20
BRANCH  11  22
ATOM     22  O   UNL     1      36.951 -20.308 -17.939  0.00  0.00    -0.384 OA
ATOM     23  H   UNL     1      37.722 -19.793 -18.226  0.00  0.00    +0.210 HD
ENDBRANCH  11  22
BRANCH  19  24
ATOM     24  O   UNL     1      33.141 -18.306 -20.391  0.00  0.00    -0.384 OA
ATOM     25  H   UNL     1      32.176 -18.226 -20.341  0.00  0.00    +0.210 HD
ENDBRANCH  19  24
BRANCH   6  26
ATOM     26  C   UNL     1      35.302 -24.113 -12.910  0.00  0.00    +0.001 C 
ATOM     27  C   UNL     1      33.959 -23.676 -12.315  0.00  0.00    +0.000 C 
BRANCH  26  28
ATOM     28  C   UNL     1      36.341 -24.256 -11.779  0.00  0.00    +0.010 C 
BRANCH  28  29
ATOM     29  C   UNL     1      36.822 -25.693 -11.576  0.00  0.00    +0.085 C 
BRANCH  29  32
ATOM     30  O   UNL     1      36.788 -27.259 -13.422  0.00  0.00    -0.275 OA
ATOM     31  N   UNL     1      38.490 -25.683 -13.307  0.00  0.00    -0.295 N 
ATOM     32  C   UNL     1      37.339 -26.317 -12.861  0.00  0.00    +0.223 C 
ATOM     33  H   UNL     1      38.848 -24.934 -12.777  0.00  0.00    +0.150 HD
BRANCH  31  34
ATOM     34  C   UNL     1      39.188 -26.068 -14.512  0.00  0.00    +0.205 C 
BRANCH  34  37
ATOM     35  O   UNL     1      41.095 -24.691 -14.623  0.00  0.00    -0.244 OA
ATOM     36  O   UNL     1      41.347 -26.897 -14.069  0.00  0.00    -0.244 OA
ATOM     37  C   UNL     1      40.691 -25.867 -14.392  0.00  0.00    +0.385 C 
ENDBRANCH  34  37
ENDBRANCH  31  34
ENDBRANCH  29  32
ENDBRANCH  28  29
ENDBRANCH  26  28
ENDBRANCH   6  26
TORSDOF 9
ENDMDL
MODEL 5
REMARK VINA RESULT:      -6.1      7.415     14.225
REMARK  Name = 5460316
REMARK  9 active torsions:
REMARK  status: ('A' for Active; 'I' for Inactive)
REMARK    1  A    between atoms: C_6  and  C_26
REMARK    2  A    between atoms: C_7  and  O_20
REMARK    3  A    between atoms: C_11  and  O_22
REMARK    4  A    between atoms: C_19  and  O_24
REMARK    5  A    between atoms: C_26  and  C_28
REMARK    6  A    between atoms: C_28  and  C_29
REMARK    7  A    between atoms: C_29  and  C_32
REMARK    8  A    between atoms: N_31  and  C_34
REMARK    9  A    between atoms: C_34  and  C_37
REMARK                            x       y       z     vdW  Elec       q    Type
REMARK                         _______ _______ _______ _____ _____    ______ ____
ROOT
ATOM      1  C   UNL     1      33.526 -11.776 -23.509  0.00  0.00    +0.025 C 
ATOM      2  C   UNL     1      32.325 -10.851 -23.197  0.00  0.00    +0.005 C 
ATOM      3  C   UNL     1      32.748  -9.442 -22.754  0.00  0.00    +0.027 C 
ATOM      4  C   UNL     1      33.597  -8.785 -23.895  0.00  0.00    +0.005 C 
ATOM      5  C   UNL     1      34.069  -7.330 -23.506  0.00  0.00    +0.000 C 
ATOM      6  C   UNL     1      32.748 -13.080 -23.829  0.00  0.00    +0.002 C 
ATOM      7  C   UNL     1      34.336 -11.167 -24.672  0.00  0.00    +0.110 C 
ATOM      8  C   UNL     1      34.754  -9.713 -24.371  0.00  0.00    +0.029 C 
ATOM      9  C   UNL     1      32.818  -6.461 -23.143  0.00  0.00    +0.005 C 
ATOM     10  C   UNL     1      31.465 -11.685 -22.249  0.00  0.00    +0.000 C 
ATOM     11  C   UNL     1      31.542  -8.569 -22.358  0.00  0.00    +0.110 C 
ATOM     12  C   UNL     1      31.654 -13.132 -22.738  0.00  0.00    +0.000 C 
ATOM     13  C   UNL     1      31.939  -7.120 -22.062  0.00  0.00    +0.029 C 
ATOM     14  C   UNL     1      34.850  -6.626 -24.655  0.00  0.00    +0.002 C 
ATOM     15  C   UNL     1      34.476 -11.984 -22.298  0.00  0.00    +0.002 C 
ATOM     16  C   UNL     1      31.982  -6.068 -24.379  0.00  0.00    +0.029 C 
ATOM     17  C   UNL     1      35.039  -7.359 -22.293  0.00  0.00    +0.000 C 
ATOM     18  C   UNL     1      33.995  -6.279 -25.866  0.00  0.00    +0.029 C 
ATOM     19  C   UNL     1      32.821  -5.397 -25.462  0.00  0.00    +0.111 C 
ENDROOT
BRANCH   7  20
ATOM     20  O   UNL     1      33.617 -11.206 -25.905  0.00  0.00    -0.384 OA
ATOM     21  H   UNL     1      34.244 -11.195 -26.645  0.00  0.00    +0.210 HD
ENDBRANCH   7  20
BRANCH  11  22
ATOM     22  O   UNL     1      30.546  -8.608 -23.375  0.00  0.00    -0.384 OA
ATOM     23  H   UNL     1      30.498  -7.745 -23.816  0.00  0.00    +0.210 HD
ENDBRANCH  11  22
BRANCH  19  24
ATOM     24  O   UNL     1      32.016  -5.159 -26.613  0.00  0.00    -0.384 OA
ATOM     25  H   UNL     1      31.544  -4.319 -26.508  0.00  0.00    +0.210 HD
ENDBRANCH  19  24
BRANCH   6  26
ATOM     26  C   UNL     1      33.571 -14.357 -23.905  0.00  0.00    +0.001 C 
ATOM     27  C   UNL     1      33.320 -15.065 -25.241  0.00  0.00    +0.000 C 
BRANCH  26  28
ATOM     28  C   UNL     1      33.271 -15.331 -22.747  0.00  0.00    +0.010 C 
BRANCH  28  29
ATOM     29  C   UNL     1      34.474 -15.578 -21.836  0.00  0.00    +0.085 C 
BRANCH  29  32
ATOM     30  O   UNL     1      35.368 -17.597 -20.843  0.00  0.00    -0.275 OA
ATOM     31  N   UNL     1      34.704 -17.629 -23.069  0.00  0.00    -0.295 N 
ATOM     32  C   UNL     1      34.906 -17.035 -21.832  0.00  0.00    +0.223 C 
ATOM     33  H   UNL     1      34.326 -17.082 -23.796  0.00  0.00    +0.150 HD
BRANCH  31  34
ATOM     34  C   UNL     1      35.021 -19.012 -23.343  0.00  0.00    +0.205 C 
BRANCH  34  37
ATOM     35  O   UNL     1      34.286 -18.454 -25.509  0.00  0.00    -0.244 OA
ATOM     36  O   UNL     1      35.022 -20.581 -25.098  0.00  0.00    -0.244 OA
ATOM     37  C   UNL     1      34.747 -19.387 -24.792  0.00  0.00    +0.385 C 
ENDBRANCH  34  37
ENDBRANCH  31  34
ENDBRANCH  29  32
ENDBRANCH  28  29
ENDBRANCH  26  28
ENDBRANCH   6  26
TORSDOF 9
ENDMDL
MODEL 6
REMARK VINA RESULT:      -6.0      3.681     11.551
REMARK  Name = 5460316
REMARK  9 active torsions:
REMARK  status: ('A' for Active; 'I' for Inactive)
REMARK    1  A    between atoms: C_6  and  C_26
REMARK    2  A    between atoms: C_7  and  O_20
REMARK    3  A    between atoms: C_11  and  O_22
REMARK    4  A    between atoms: C_19  and  O_24
REMARK    5  A    between atoms: C_26  and  C_28
REMARK    6  A    between atoms: C_28  and  C_29
REMARK    7  A    between atoms: C_29  and  C_32
REMARK    8  A    between atoms: N_31  and  C_34
REMARK    9  A    between atoms: C_34  and  C_37
REMARK                            x       y       z     vdW  Elec       q    Type
REMARK                         _______ _______ _______ _____ _____    ______ ____
ROOT
ATOM      1  C   UNL     1      34.316 -17.025 -22.391  0.00  0.00    +0.025 C 
ATOM      2  C   UNL     1      34.364 -16.739 -23.911  0.00  0.00    +0.005 C 
ATOM      3  C   UNL     1      33.415 -15.610 -24.342  0.00  0.00    +0.027 C 
ATOM      4  C   UNL     1      33.804 -14.300 -23.578  0.00  0.00    +0.005 C 
ATOM      5  C   UNL     1      32.866 -13.094 -23.973  0.00  0.00    +0.000 C 
ATOM      6  C   UNL     1      35.298 -18.225 -22.341  0.00  0.00    +0.002 C 
ATOM      7  C   UNL     1      34.755 -15.758 -21.629  0.00  0.00    +0.110 C 
ATOM      8  C   UNL     1      33.916 -14.530 -22.041  0.00  0.00    +0.029 C 
ATOM      9  C   UNL     1      32.910 -12.892 -25.524  0.00  0.00    +0.005 C 
ATOM     10  C   UNL     1      34.190 -18.118 -24.544  0.00  0.00    +0.000 C 
ATOM     11  C   UNL     1      33.409 -15.405 -25.870  0.00  0.00    +0.110 C 
ATOM     12  C   UNL     1      34.903 -19.075 -23.571  0.00  0.00    +0.000 C 
ATOM     13  C   UNL     1      32.586 -14.187 -26.295  0.00  0.00    +0.029 C 
ATOM     14  C   UNL     1      33.281 -11.760 -23.284  0.00  0.00    +0.002 C 
ATOM     15  C   UNL     1      32.908 -17.444 -21.887  0.00  0.00    +0.002 C 
ATOM     16  C   UNL     1      34.236 -12.271 -26.011  0.00  0.00    +0.029 C 
ATOM     17  C   UNL     1      31.400 -13.356 -23.534  0.00  0.00    +0.000 C 
ATOM     18  C   UNL     1      34.608 -11.195 -23.772  0.00  0.00    +0.029 C 
ATOM     19  C   UNL     1      34.578 -10.977 -25.279  0.00  0.00    +0.111 C 
ENDROOT
BRANCH   7  20
ATOM     20  O   UNL     1      36.139 -15.468 -21.822  0.00  0.00    -0.384 OA
ATOM     21  H   UNL     1      36.230 -14.648 -22.333  0.00  0.00    +0.210 HD
ENDBRANCH   7  20
BRANCH  11  22
ATOM     22  O   UNL     1      34.742 -15.294 -26.360  0.00  0.00    -0.384 OA
ATOM     23  H   UNL     1      35.353 -15.181 -25.616  0.00  0.00    +0.210 HD
ENDBRANCH  11  22
BRANCH  19  24
ATOM     24  O   UNL     1      35.859 -10.515 -25.695  0.00  0.00    -0.384 OA
ATOM     25  H   UNL     1      36.187  -9.857 -25.062  0.00  0.00    +0.210 HD
ENDBRANCH  19  24
BRANCH   6  26
ATOM     26  C   UNL     1      35.321 -19.027 -21.048  0.00  0.00    +0.001 C 
ATOM     27  C   UNL     1      36.768 -19.242 -20.590  0.00  0.00    +0.000 C 
BRANCH  26  28
ATOM     28  C   UNL     1      34.619 -20.395 -21.182  0.00  0.00    +0.010 C 
BRANCH  28  29
ATOM     29  C   UNL     1      33.554 -20.635 -20.112  0.00  0.00    +0.085 C 
BRANCH  29  32
ATOM     30  O   UNL     1      35.034 -22.284 -19.135  0.00  0.00    -0.275 OA
ATOM     31  N   UNL     1      32.826 -22.179 -18.419  0.00  0.00    -0.295 N 
ATOM     32  C   UNL     1      33.913 -21.786 -19.186  0.00  0.00    +0.223 C 
ATOM     33  H   UNL     1      31.970 -21.708 -18.542  0.00  0.00    +0.150 HD
BRANCH  31  34
ATOM     34  C   UNL     1      32.891 -23.247 -17.447  0.00  0.00    +0.205 C 
BRANCH  34  37
ATOM     35  O   UNL     1      31.794 -23.972 -15.494  0.00  0.00    -0.244 OA
ATOM     36  O   UNL     1      30.698 -22.565 -16.928  0.00  0.00    -0.244 OA
ATOM     37  C   UNL     1      31.673 -23.265 -16.535  0.00  0.00    +0.385 C 
ENDBRANCH  34  37
ENDBRANCH  31  34
ENDBRANCH  29  32
ENDBRANCH  28  29
ENDBRANCH  26  28
ENDBRANCH   6  26
TORSDOF 9
ENDMDL
MODEL 7
REMARK VINA RESULT:      -5.9      6.017     13.892
REMARK  Name = 5460316
REMARK  9 active torsions:
REMARK  status: ('A' for Active; 'I' for Inactive)
REMARK    1  A    between atoms: C_6  and  C_26
REMARK    2  A    between atoms: C_7  and  O_20
REMARK    3  A    between atoms: C_11  and  O_22
REMARK    4  A    between atoms: C_19  and  O_24
REMARK    5  A    between atoms: C_26  and  C_28
REMARK    6  A    between atoms: C_28  and  C_29
REMARK    7  A    between atoms: C_29  and  C_32
REMARK    8  A    between atoms: N_31  and  C_34
REMARK    9  A    between atoms: C_34  and  C_37
REMARK                            x       y       z     vdW  Elec       q    Type
REMARK                         _______ _______ _______ _____ _____    ______ ____
ROOT
ATOM      1  C   UNL     1      33.583 -12.183 -23.458  0.00  0.00    +0.025 C 
ATOM      2  C   UNL     1      32.386 -11.496 -22.757  0.00  0.00    +0.005 C 
ATOM      3  C   UNL     1      32.715 -10.083 -22.250  0.00  0.00    +0.027 C 
ATOM      4  C   UNL     1      33.153  -9.197 -23.464  0.00  0.00    +0.005 C 
ATOM      5  C   UNL     1      33.508  -7.727 -23.015  0.00  0.00    +0.000 C 
ATOM      6  C   UNL     1      32.931 -13.560 -23.749  0.00  0.00    +0.002 C 
ATOM      7  C   UNL     1      33.985 -11.349 -24.691  0.00  0.00    +0.110 C 
ATOM      8  C   UNL     1      34.267  -9.879 -24.314  0.00  0.00    +0.029 C 
ATOM      9  C   UNL     1      32.285  -7.107 -22.260  0.00  0.00    +0.005 C 
ATOM     10  C   UNL     1      31.912 -12.540 -21.747  0.00  0.00    +0.000 C 
ATOM     11  C   UNL     1      31.541  -9.455 -21.473  0.00  0.00    +0.110 C 
ATOM     12  C   UNL     1      32.164 -13.887 -22.447  0.00  0.00    +0.000 C 
ATOM     13  C   UNL     1      31.802  -7.994 -21.096  0.00  0.00    +0.029 C 
ATOM     14  C   UNL     1      33.873  -6.804 -24.216  0.00  0.00    +0.002 C 
ATOM     15  C   UNL     1      34.825 -12.344 -22.540  0.00  0.00    +0.002 C 
ATOM     16  C   UNL     1      31.119  -6.743 -23.204  0.00  0.00    +0.029 C 
ATOM     17  C   UNL     1      34.747  -7.709 -22.078  0.00  0.00    +0.000 C 
ATOM     18  C   UNL     1      32.703  -6.491 -25.138  0.00  0.00    +0.029 C 
ATOM     19  C   UNL     1      31.561  -5.851 -24.360  0.00  0.00    +0.111 C 
ENDROOT
BRANCH   7  20
ATOM     20  O   UNL     1      32.991 -11.390 -25.714  0.00  0.00    -0.384 OA
ATOM     21  H   UNL     1      32.211 -10.889 -25.428  0.00  0.00    +0.210 HD
ENDBRANCH   7  20
BRANCH  11  22
ATOM     22  O   UNL     1      30.336  -9.562 -22.224  0.00  0.00    -0.384 OA
ATOM     23  H   UNL     1      30.514  -9.355 -23.155  0.00  0.00    +0.210 HD
ENDBRANCH  11  22
BRANCH  19  24
ATOM     24  O   UNL     1      30.468  -5.642 -25.249  0.00  0.00    -0.384 OA
ATOM     25  H   UNL     1      30.689  -6.002 -26.122  0.00  0.00    +0.210 HD
ENDBRANCH  19  24
BRANCH   6  26
ATOM     26  C   UNL     1      33.872 -14.676 -24.179  0.00  0.00    +0.001 C 
ATOM     27  C   UNL     1      33.653 -15.007 -25.659  0.00  0.00    +0.000 C 
BRANCH  26  28
ATOM     28  C   UNL     1      33.701 -15.958 -23.338  0.00  0.00    +0.010 C 
BRANCH  28  29
ATOM     29  C   UNL     1      35.027 -16.553 -22.863  0.00  0.00    +0.085 C 
BRANCH  29  32
ATOM     30  O   UNL     1      34.986 -16.708 -20.448  0.00  0.00    -0.275 OA
ATOM     31  N   UNL     1      34.652 -18.629 -21.710  0.00  0.00    -0.295 N 
ATOM     32  C   UNL     1      34.894 -17.275 -21.532  0.00  0.00    +0.223 C 
ATOM     33  H   UNL     1      34.598 -18.979 -22.629  0.00  0.00    +0.150 HD
BRANCH  31  34
ATOM     34  C   UNL     1      34.476 -19.551 -20.612  0.00  0.00    +0.205 C 
BRANCH  34  37
ATOM     35  O   UNL     1      35.522 -21.561 -19.970  0.00  0.00    -0.244 OA
ATOM     36  O   UNL     1      36.819 -19.766 -20.544  0.00  0.00    -0.244 OA
ATOM     37  C   UNL     1      35.729 -20.372 -20.347  0.00  0.00    +0.385 C 
ENDBRANCH  34  37
ENDBRANCH  31  34
ENDBRANCH  29  32
ENDBRANCH  28  29
ENDBRANCH  26  28
ENDBRANCH   6  26
TORSDOF 9
ENDMDL
MODEL 8
REMARK VINA RESULT:      -5.9     10.024     18.058
REMARK  Name = 5460316
REMARK  9 active torsions:
REMARK  status: ('A' for Active; 'I' for Inactive)
REMARK    1  A    between atoms: C_6  and  C_26
REMARK    2  A    between atoms: C_7  and  O_20
REMARK    3  A    between atoms: C_11  and  O_22
REMARK    4  A    between atoms: C_19  and  O_24
REMARK    5  A    between atoms: C_26  and  C_28
REMARK    6  A    between atoms: C_28  and  C_29
REMARK    7  A    between atoms: C_29  and  C_32
REMARK    8  A    between atoms: N_31  and  C_34
REMARK    9  A    between atoms: C_34  and  C_37
REMARK                            x       y       z     vdW  Elec       q    Type
REMARK                         _______ _______ _______ _____ _____    ______ ____
ROOT
ATOM      1  C   UNL     1      32.319  -7.036 -23.217  0.00  0.00    +0.025 C 
ATOM      2  C   UNL     1      31.698  -5.835 -22.464  0.00  0.00    +0.005 C 
ATOM      3  C   UNL     1      32.041  -4.481 -23.102  0.00  0.00    +0.027 C 
ATOM      4  C   UNL     1      31.515  -4.467 -24.577  0.00  0.00    +0.005 C 
ATOM      5  C   UNL     1      31.835  -3.099 -25.297  0.00  0.00    +0.000 C 
ATOM      6  C   UNL     1      31.848  -8.178 -22.278  0.00  0.00    +0.002 C 
ATOM      7  C   UNL     1      31.762  -7.066 -24.655  0.00  0.00    +0.110 C 
ATOM      8  C   UNL     1      31.981  -5.720 -25.376  0.00  0.00    +0.029 C 
ATOM      9  C   UNL     1      31.235  -1.921 -24.459  0.00  0.00    +0.005 C 
ATOM     10  C   UNL     1      32.096  -6.077 -21.009  0.00  0.00    +0.000 C 
ATOM     11  C   UNL     1      31.492  -3.295 -22.284  0.00  0.00    +0.110 C 
ATOM     12  C   UNL     1      32.081  -7.609 -20.860  0.00  0.00    +0.000 C 
ATOM     13  C   UNL     1      31.696  -1.951 -22.988  0.00  0.00    +0.029 C 
ATOM     14  C   UNL     1      31.255  -3.031 -26.741  0.00  0.00    +0.002 C 
ATOM     15  C   UNL     1      33.870  -6.985 -23.286  0.00  0.00    +0.002 C 
ATOM     16  C   UNL     1      29.698  -1.836 -24.560  0.00  0.00    +0.029 C 
ATOM     17  C   UNL     1      33.367  -2.889 -25.448  0.00  0.00    +0.000 C 
ATOM     18  C   UNL     1      29.734  -2.976 -26.797  0.00  0.00    +0.029 C 
ATOM     19  C   UNL     1      29.209  -1.787 -26.004  0.00  0.00    +0.111 C 
ENDROOT
BRANCH   7  20
ATOM     20  O   UNL     1      30.373  -7.396 -24.685  0.00  0.00    -0.384 OA
ATOM     21  H   UNL     1      29.991  -7.267 -23.803  0.00  0.00    +0.210 HD
ENDBRANCH   7  20
BRANCH  11  22
ATOM     22  O   UNL     1      30.112  -3.492 -21.990  0.00  0.00    -0.384 OA
ATOM     23  H   UNL     1      29.933  -3.221 -21.076  0.00  0.00    +0.210 HD
ENDBRANCH  11  22
BRANCH  19  24
ATOM     24  O   UNL     1      27.786  -1.818 -26.030  0.00  0.00    -0.384 OA
ATOM     25  H   UNL     1      27.438  -1.302 -25.286  0.00  0.00    +0.210 HD
ENDBRANCH  19  24
BRANCH   6  26
ATOM     26  C   UNL     1      32.499  -9.537 -22.487  0.00  0.00    +0.001 C 
ATOM     27  C   UNL     1      32.445  -9.923 -23.969  0.00  0.00    +0.000 C 
BRANCH  26  28
ATOM     28  C   UNL     1      31.840 -10.650 -21.645  0.00  0.00    +0.010 C 
BRANCH  28  29
ATOM     29  C   UNL     1      31.952 -12.036 -22.279  0.00  0.00    +0.085 C 
BRANCH  29  32
ATOM     30  O   UNL     1      32.212 -12.930 -20.044  0.00  0.00    -0.275 OA
ATOM     31  N   UNL     1      32.577 -14.321 -21.869  0.00  0.00    -0.295 N 
ATOM     32  C   UNL     1      32.257 -13.118 -21.256  0.00  0.00    +0.223 C 
ATOM     33  H   UNL     1      32.583 -14.359 -22.853  0.00  0.00    +0.150 HD
BRANCH  31  34
ATOM     34  C   UNL     1      32.903 -15.520 -21.132  0.00  0.00    +0.205 C 
BRANCH  34  37
ATOM     35  O   UNL     1      34.964 -15.889 -22.209  0.00  0.00    -0.244 OA
ATOM     36  O   UNL     1      34.899 -15.827 -19.923  0.00  0.00    -0.244 OA
ATOM     37  C   UNL     1      34.402 -15.773 -21.083  0.00  0.00    +0.385 C 
ENDBRANCH  34  37
ENDBRANCH  31  34
ENDBRANCH  29  32
ENDBRANCH  28  29
ENDBRANCH  26  28
ENDBRANCH   6  26
TORSDOF 9
ENDMDL
MODEL 9
REMARK VINA RESULT:      -5.7      3.092     11.490
REMARK  Name = 5460316
REMARK  9 active torsions:
REMARK  status: ('A' for Active; 'I' for Inactive)
REMARK    1  A    between atoms: C_6  and  C_26
REMARK    2  A    between atoms: C_7  and  O_20
REMARK    3  A    between atoms: C_11  and  O_22
REMARK    4  A    between atoms: C_19  and  O_24
REMARK    5  A    between atoms: C_26  and  C_28
REMARK    6  A    between atoms: C_28  and  C_29
REMARK    7  A    between atoms: C_29  and  C_32
REMARK    8  A    between atoms: N_31  and  C_34
REMARK    9  A    between atoms: C_34  and  C_37
REMARK                            x       y       z     vdW  Elec       q    Type
REMARK                         _______ _______ _______ _____ _____    ______ ____
ROOT
ATOM      1  C   UNL     1      34.318 -16.954 -22.418  0.00  0.00    +0.025 C 
ATOM      2  C   UNL     1      34.355 -16.676 -23.940  0.00  0.00    +0.005 C 
ATOM      3  C   UNL     1      33.413 -15.542 -24.370  0.00  0.00    +0.027 C 
ATOM      4  C   UNL     1      33.820 -14.231 -23.616  0.00  0.00    +0.005 C 
ATOM      5  C   UNL     1      32.889 -13.019 -24.010  0.00  0.00    +0.000 C 
ATOM      6  C   UNL     1      35.289 -18.163 -22.370  0.00  0.00    +0.002 C 
ATOM      7  C   UNL     1      34.774 -15.686 -21.668  0.00  0.00    +0.110 C 
ATOM      8  C   UNL     1      33.943 -14.454 -22.079  0.00  0.00    +0.029 C 
ATOM      9  C   UNL     1      32.921 -12.826 -25.563  0.00  0.00    +0.005 C 
ATOM     10  C   UNL     1      34.164 -18.058 -24.563  0.00  0.00    +0.000 C 
ATOM     11  C   UNL     1      33.395 -15.345 -25.898  0.00  0.00    +0.110 C 
ATOM     12  C   UNL     1      34.876 -19.016 -23.591  0.00  0.00    +0.000 C 
ATOM     13  C   UNL     1      32.579 -14.122 -26.323  0.00  0.00    +0.029 C 
ATOM     14  C   UNL     1      33.322 -11.685 -23.332  0.00  0.00    +0.002 C 
ATOM     15  C   UNL     1      32.910 -17.358 -21.900  0.00  0.00    +0.002 C 
ATOM     16  C   UNL     1      34.248 -12.219 -26.065  0.00  0.00    +0.029 C 
ATOM     17  C   UNL     1      31.424 -13.265 -23.557  0.00  0.00    +0.000 C 
ATOM     18  C   UNL     1      34.649 -11.134 -23.836  0.00  0.00    +0.029 C 
ATOM     19  C   UNL     1      34.609 -10.924 -25.343  0.00  0.00    +0.111 C 
ENDROOT
BRANCH   7  20
ATOM     20  O   UNL     1      36.160 -15.410 -21.874  0.00  0.00    -0.384 OA
ATOM     21  H   UNL     1      36.253 -14.639 -22.456  0.00  0.00    +0.210 HD
ENDBRANCH   7  20
BRANCH  11  22
ATOM     22  O   UNL     1      34.724 -15.249 -26.401  0.00  0.00    -0.384 OA
ATOM     23  H   UNL     1      34.863 -14.370 -26.785  0.00  0.00    +0.210 HD
ENDBRANCH  11  22
BRANCH  19  24
ATOM     24  O   UNL     1      35.890 -10.476 -25.773  0.00  0.00    -0.384 OA
ATOM     25  H   UNL     1      36.096  -9.631 -25.346  0.00  0.00    +0.210 HD
ENDBRANCH  19  24
BRANCH   6  26
ATOM     26  C   UNL     1      35.317 -18.958 -21.073  0.00  0.00    +0.001 C 
ATOM     27  C   UNL     1      36.764 -19.164 -20.615  0.00  0.00    +0.000 C 
BRANCH  26  28
ATOM     28  C   UNL     1      34.620 -20.328 -21.199  0.00  0.00    +0.010 C 
BRANCH  28  29
ATOM     29  C   UNL     1      33.410 -20.479 -20.276  0.00  0.00    +0.085 C 
BRANCH  29  32
ATOM     30  O   UNL     1      32.719 -22.326 -18.872  0.00  0.00    -0.275 OA
ATOM     31  N   UNL     1      34.913 -21.573 -18.753  0.00  0.00    -0.295 N 
ATOM     32  C   UNL     1      33.611 -21.562 -19.230  0.00  0.00    +0.223 C 
ATOM     33  H   UNL     1      35.549 -20.912 -19.111  0.00  0.00    +0.150 HD
BRANCH  31  34
ATOM     34  C   UNL     1      35.381 -22.508 -17.756  0.00  0.00    +0.205 C 
BRANCH  34  37
ATOM     35  O   UNL     1      37.060 -20.888 -17.436  0.00  0.00    -0.244 OA
ATOM     36  O   UNL     1      37.147 -22.832 -16.233  0.00  0.00    -0.244 OA
ATOM     37  C   UNL     1      36.656 -22.030 -17.077  0.00  0.00    +0.385 C 
ENDBRANCH  34  37
ENDBRANCH  31  34
ENDBRANCH  29  32
ENDBRANCH  28  29
ENDBRANCH  26  28
ENDBRANCH   6  26
TORSDOF 9
ENDMDL
