MODEL 1
REMARK VINA RESULT:      -7.9      0.000      0.000
REMARK  Name = 486953
REMARK  7 active torsions:
REMARK  status: ('A' for Active; 'I' for Inactive)
REMARK    1  A    between atoms: C_3  and  C_18
REMARK    2  A    between atoms: C_4  and  C_16
REMARK    3  A    between atoms: C_5  and  N_10
REMARK    4  A    between atoms: N_10  and  C_12
REMARK    5  A    between atoms: C_12  and  C_13
REMARK    6  A    between atoms: C_13  and  O_14
REMARK    7  A    between atoms: C_18  and  C_19
REMARK                            x       y       z     vdW  Elec       q    Type
REMARK                         _______ _______ _______ _____ _____    ______ ____
ROOT
ATOM      1  O   UNL     1      31.368 -23.201 -16.826  0.00  0.00    -0.266 OA
ATOM      2  N   UNL     1      33.258 -22.697 -18.013  0.00  0.00    -0.324 N 
ATOM      3  C   UNL     1      34.764 -23.015 -15.724  0.00  0.00    -0.003 A 
ATOM      4  C   UNL     1      35.389 -22.617 -17.003  0.00  0.00    -0.013 A 
ATOM      5  C   UNL     1      33.429 -23.216 -15.629  0.00  0.00    +0.101 A 
ATOM      6  C   UNL     1      34.615 -22.489 -18.102  0.00  0.00    +0.032 A 
ATOM      7  C   UNL     1      32.588 -23.039 -16.860  0.00  0.00    +0.270 A 
ATOM      8  C   UNL     1      35.085 -22.086 -19.472  0.00  0.00    +0.050 C 
ATOM      9  H   UNL     1      32.726 -22.594 -18.835  0.00  0.00    +0.169 HD
ENDROOT
BRANCH   5  10
ATOM     10  N   UNL     1      32.721 -23.577 -14.517  0.00  0.00    -0.300 N 
ATOM     11  C   UNL     1      31.946 -22.602 -13.763  0.00  0.00    +0.112 C 
BRANCH  10  12
ATOM     12  C   UNL     1      32.504 -24.977 -14.178  0.00  0.00    +0.123 C 
BRANCH  12  13
ATOM     13  C   UNL     1      31.081 -25.179 -13.687  0.00  0.00    +0.164 C 
BRANCH  13  14
ATOM     14  O   UNL     1      30.294 -25.734 -14.734  0.00  0.00    -0.349 OA
ATOM     15  C   UNL     1      29.054 -25.055 -14.870  0.00  0.00    +0.174 C 
ENDBRANCH  13  14
ENDBRANCH  12  13
ENDBRANCH  10  12
ENDBRANCH   5  10
BRANCH   4  16
ATOM     16  C   UNL     1      36.885 -22.423 -17.027  0.00  0.00    +0.027 C 
ATOM     17  C   UNL     1      37.253 -20.961 -16.908  0.00  0.00    +0.005 C 
ENDBRANCH   4  16
BRANCH   3  18
ATOM     18  C   UNL     1      35.678 -23.163 -14.528  0.00  0.00    +0.054 C 
BRANCH  18  19
ATOM     19  C   UNL     1      36.516 -24.402 -14.612  0.00  0.00    -0.018 C 
ATOM     20  C   UNL     1      37.855 -24.358 -14.237  0.00  0.00    -0.008 C 
ATOM     21  C   UNL     1      35.949 -25.589 -15.066  0.00  0.00    -0.004 C 
ATOM     22  C   UNL     1      38.634 -25.512 -14.316  0.00  0.00    -0.022 C 
ATOM     23  C   UNL     1      36.729 -26.743 -15.145  0.00  0.00    -0.001 C 
ATOM     24  C   UNL     1      38.071 -26.704 -14.770  0.00  0.00    -0.004 C 
ATOM     25  C   UNL     1      40.070 -25.471 -13.916  0.00  0.00    +0.031 C 
ENDBRANCH  18  19
ENDBRANCH   3  18
TORSDOF 7
ENDMDL
MODEL 2
REMARK VINA RESULT:      -7.6     14.895     18.133
REMARK  Name = 486953
REMARK  7 active torsions:
REMARK  status: ('A' for Active; 'I' for Inactive)
REMARK    1  A    between atoms: C_3  and  C_18
REMARK    2  A    between atoms: C_4  and  C_16
REMARK    3  A    between atoms: C_5  and  N_10
REMARK    4  A    between atoms: N_10  and  C_12
REMARK    5  A    between atoms: C_12  and  C_13
REMARK    6  A    between atoms: C_13  and  O_14
REMARK    7  A    between atoms: C_18  and  C_19
REMARK                            x       y       z     vdW  Elec       q    Type
REMARK                         _______ _______ _______ _____ _____    ______ ____
ROOT
ATOM      1  O   UNL     1      30.931 -10.258 -22.009  0.00  0.00    -0.266 OA
ATOM      2  N   UNL     1      32.491 -11.247 -23.359  0.00  0.00    -0.324 N 
ATOM      3  C   UNL     1      33.926  -8.892 -23.403  0.00  0.00    -0.003 A 
ATOM      4  C   UNL     1      34.375 -10.076 -24.164  0.00  0.00    -0.013 A 
ATOM      5  C   UNL     1      32.785  -8.916 -22.677  0.00  0.00    +0.101 A 
ATOM      6  C   UNL     1      33.650 -11.214 -24.100  0.00  0.00    +0.032 A 
ATOM      7  C   UNL     1      31.982 -10.185 -22.646  0.00  0.00    +0.270 A 
ATOM      8  C   UNL     1      33.958 -12.500 -24.815  0.00  0.00    +0.050 C 
ATOM      9  H   UNL     1      31.988 -12.093 -23.337  0.00  0.00    +0.169 HD
ENDROOT
BRANCH   5  10
ATOM     10  N   UNL     1      32.249  -7.900 -21.936  0.00  0.00    -0.300 N 
ATOM     11  C   UNL     1      31.042  -7.206 -22.362  0.00  0.00    +0.112 C 
BRANCH  10  12
ATOM     12  C   UNL     1      32.706  -7.629 -20.579  0.00  0.00    +0.123 C 
BRANCH  12  13
ATOM     13  C   UNL     1      31.826  -8.359 -19.579  0.00  0.00    +0.164 C 
BRANCH  13  14
ATOM     14  O   UNL     1      32.479  -9.549 -19.153  0.00  0.00    -0.349 OA
ATOM     15  C   UNL     1      31.545 -10.570 -18.836  0.00  0.00    +0.174 C 
ENDBRANCH  13  14
ENDBRANCH  12  13
ENDBRANCH  10  12
ENDBRANCH   5  10
BRANCH   4  16
ATOM     16  C   UNL     1      35.665  -9.969 -24.939  0.00  0.00    +0.027 C 
ATOM     17  C   UNL     1      35.467 -10.341 -26.392  0.00  0.00    +0.005 C 
ENDBRANCH   4  16
BRANCH   3  18
ATOM     18  C   UNL     1      34.785  -7.650 -23.492  0.00  0.00    +0.054 C 
BRANCH  18  19
ATOM     19  C   UNL     1      34.278  -6.691 -24.526  0.00  0.00    -0.018 C 
ATOM     20  C   UNL     1      33.040  -6.078 -24.354  0.00  0.00    -0.008 C 
ATOM     21  C   UNL     1      35.049  -6.420 -25.653  0.00  0.00    -0.004 C 
ATOM     22  C   UNL     1      32.570  -5.186 -25.316  0.00  0.00    -0.022 C 
ATOM     23  C   UNL     1      34.577  -5.527 -26.616  0.00  0.00    -0.001 C 
ATOM     24  C   UNL     1      33.338  -4.911 -26.447  0.00  0.00    -0.004 C 
ATOM     25  C   UNL     1      31.244  -4.527 -25.138  0.00  0.00    +0.031 C 
ENDBRANCH  18  19
ENDBRANCH   3  18
TORSDOF 7
ENDMDL
MODEL 3
REMARK VINA RESULT:      -7.4     15.583     18.810
REMARK  Name = 486953
REMARK  7 active torsions:
REMARK  status: ('A' for Active; 'I' for Inactive)
REMARK    1  A    between atoms: C_3  and  C_18
REMARK    2  A    between atoms: C_4  and  C_16
REMARK    3  A    between atoms: C_5  and  N_10
REMARK    4  A    between atoms: N_10  and  C_12
REMARK    5  A    between atoms: C_12  and  C_13
REMARK    6  A    between atoms: C_13  and  O_14
REMARK    7  A    between atoms: C_18  and  C_19
REMARK                            x       y       z     vdW  Elec       q    Type
REMARK                         _______ _______ _______ _____ _____    ______ ____
ROOT
ATOM      1  O   UNL     1      30.864 -10.267 -21.840  0.00  0.00    -0.266 OA
ATOM      2  N   UNL     1      32.434 -11.201 -23.217  0.00  0.00    -0.324 N 
ATOM      3  C   UNL     1      33.795  -8.803 -23.270  0.00  0.00    -0.003 A 
ATOM      4  C   UNL     1      34.269  -9.970 -24.043  0.00  0.00    -0.013 A 
ATOM      5  C   UNL     1      32.665  -8.866 -22.528  0.00  0.00    +0.101 A 
ATOM      6  C   UNL     1      33.580 -11.129 -23.975  0.00  0.00    +0.032 A 
ATOM      7  C   UNL     1      31.902 -10.159 -22.492  0.00  0.00    +0.270 A 
ATOM      8  C   UNL     1      33.918 -12.402 -24.700  0.00  0.00    +0.050 C 
ATOM      9  H   UNL     1      31.957 -12.063 -23.193  0.00  0.00    +0.169 HD
ENDROOT
BRANCH   5  10
ATOM     10  N   UNL     1      32.110  -7.870 -21.775  0.00  0.00    -0.300 N 
ATOM     11  C   UNL     1      32.658  -7.507 -20.476  0.00  0.00    +0.112 C 
BRANCH  10  12
ATOM     12  C   UNL     1      31.113  -6.965 -22.331  0.00  0.00    +0.123 C 
BRANCH  12  13
ATOM     13  C   UNL     1      31.052  -5.690 -21.508  0.00  0.00    +0.164 C 
BRANCH  13  14
ATOM     14  O   UNL     1      30.235  -4.734 -22.174  0.00  0.00    -0.349 OA
ATOM     15  C   UNL     1      31.013  -3.705 -22.766  0.00  0.00    +0.174 C 
ENDBRANCH  13  14
ENDBRANCH  12  13
ENDBRANCH  10  12
ENDBRANCH   5  10
BRANCH   4  16
ATOM     16  C   UNL     1      35.544  -9.819 -24.837  0.00  0.00    +0.027 C 
ATOM     17  C   UNL     1      35.383 -10.352 -26.243  0.00  0.00    +0.005 C 
ENDBRANCH   4  16
BRANCH   3  18
ATOM     18  C   UNL     1      34.613  -7.534 -23.366  0.00  0.00    +0.054 C 
BRANCH  18  19
ATOM     19  C   UNL     1      34.175  -6.669 -24.508  0.00  0.00    -0.018 C 
ATOM     20  C   UNL     1      35.100  -6.275 -25.471  0.00  0.00    -0.008 C 
ATOM     21  C   UNL     1      32.847  -6.264 -24.597  0.00  0.00    -0.004 C 
ATOM     22  C   UNL     1      34.692  -5.469 -26.533  0.00  0.00    -0.022 C 
ATOM     23  C   UNL     1      32.439  -5.458 -25.660  0.00  0.00    -0.001 C 
ATOM     24  C   UNL     1      33.362  -5.060 -26.628  0.00  0.00    -0.004 C 
ATOM     25  C   UNL     1      35.677  -5.043 -27.568  0.00  0.00    +0.031 C 
ENDBRANCH  18  19
ENDBRANCH   3  18
TORSDOF 7
ENDMDL
MODEL 4
REMARK VINA RESULT:      -7.4      2.769      5.660
REMARK  Name = 486953
REMARK  7 active torsions:
REMARK  status: ('A' for Active; 'I' for Inactive)
REMARK    1  A    between atoms: C_3  and  C_18
REMARK    2  A    between atoms: C_4  and  C_16
REMARK    3  A    between atoms: C_5  and  N_10
REMARK    4  A    between atoms: N_10  and  C_12
REMARK    5  A    between atoms: C_12  and  C_13
REMARK    6  A    between atoms: C_13  and  O_14
REMARK    7  A    between atoms: C_18  and  C_19
REMARK                            x       y       z     vdW  Elec       q    Type
REMARK                         _______ _______ _______ _____ _____    ______ ____
ROOT
ATOM      1  O   UNL     1      37.816 -22.370 -15.354  0.00  0.00    -0.266 OA
ATOM      2  N   UNL     1      36.976 -21.629 -17.349  0.00  0.00    -0.324 N 
ATOM      3  C   UNL     1      34.810 -23.311 -17.046  0.00  0.00    -0.003 A 
ATOM      4  C   UNL     1      34.960 -22.463 -18.247  0.00  0.00    -0.013 A 
ATOM      5  C   UNL     1      35.742 -23.307 -16.065  0.00  0.00    +0.101 A 
ATOM      6  C   UNL     1      36.027 -21.642 -18.346  0.00  0.00    +0.032 A 
ATOM      7  C   UNL     1      36.935 -22.406 -16.213  0.00  0.00    +0.270 A 
ATOM      8  C   UNL     1      36.334 -20.725 -19.497  0.00  0.00    +0.050 C 
ATOM      9  H   UNL     1      37.741 -21.019 -17.456  0.00  0.00    +0.169 HD
ENDROOT
BRANCH   5  10
ATOM     10  N   UNL     1      35.737 -24.040 -14.911  0.00  0.00    -0.300 N 
ATOM     11  C   UNL     1      36.122 -25.444 -14.904  0.00  0.00    +0.112 C 
BRANCH  10  12
ATOM     12  C   UNL     1      35.590 -23.403 -13.609  0.00  0.00    +0.123 C 
BRANCH  12  13
ATOM     13  C   UNL     1      35.396 -24.457 -12.534  0.00  0.00    +0.164 C 
BRANCH  13  14
ATOM     14  O   UNL     1      36.373 -24.280 -11.515  0.00  0.00    -0.349 OA
ATOM     15  C   UNL     1      37.033 -23.029 -11.637  0.00  0.00    +0.174 C 
ENDBRANCH  13  14
ENDBRANCH  12  13
ENDBRANCH  10  12
ENDBRANCH   5  10
BRANCH   4  16
ATOM     16  C   UNL     1      33.870 -22.519 -19.290  0.00  0.00    +0.027 C 
ATOM     17  C   UNL     1      33.027 -21.263 -19.274  0.00  0.00    +0.005 C 
ENDBRANCH   4  16
BRANCH   3  18
ATOM     18  C   UNL     1      33.587 -24.197 -16.977  0.00  0.00    +0.054 C 
BRANCH  18  19
ATOM     19  C   UNL     1      32.489 -23.576 -16.168  0.00  0.00    -0.018 C 
ATOM     20  C   UNL     1      31.240 -23.365 -16.744  0.00  0.00    -0.008 C 
ATOM     21  C   UNL     1      32.727 -23.213 -14.846  0.00  0.00    -0.004 C 
ATOM     22  C   UNL     1      30.220 -22.786 -15.991  0.00  0.00    -0.022 C 
ATOM     23  C   UNL     1      31.705 -22.634 -14.092  0.00  0.00    -0.001 C 
ATOM     24  C   UNL     1      30.452 -22.421 -14.665  0.00  0.00    -0.004 C 
ATOM     25  C   UNL     1      28.879 -22.556 -16.603  0.00  0.00    +0.031 C 
ENDBRANCH  18  19
ENDBRANCH   3  18
TORSDOF 7
ENDMDL
MODEL 5
REMARK VINA RESULT:      -7.1     15.136     17.937
REMARK  Name = 486953
REMARK  7 active torsions:
REMARK  status: ('A' for Active; 'I' for Inactive)
REMARK    1  A    between atoms: C_3  and  C_18
REMARK    2  A    between atoms: C_4  and  C_16
REMARK    3  A    between atoms: C_5  and  N_10
REMARK    4  A    between atoms: N_10  and  C_12
REMARK    5  A    between atoms: C_12  and  C_13
REMARK    6  A    between atoms: C_13  and  O_14
REMARK    7  A    between atoms: C_18  and  C_19
REMARK                            x       y       z     vdW  Elec       q    Type
REMARK                         _______ _______ _______ _____ _____    ______ ____
ROOT
ATOM      1  O   UNL     1      30.430  -6.026 -22.033  0.00  0.00    -0.266 OA
ATOM      2  N   UNL     1      31.329  -5.377 -24.034  0.00  0.00    -0.324 N 
ATOM      3  C   UNL     1      33.515  -6.991 -23.560  0.00  0.00    -0.003 A 
ATOM      4  C   UNL     1      33.425  -6.162 -24.781  0.00  0.00    -0.013 A 
ATOM      5  C   UNL     1      32.538  -6.969 -22.625  0.00  0.00    +0.101 A 
ATOM      6  C   UNL     1      32.328  -5.399 -24.979  0.00  0.00    +0.032 A 
ATOM      7  C   UNL     1      31.342  -6.090 -22.857  0.00  0.00    +0.270 A 
ATOM      8  C   UNL     1      32.082  -4.496 -26.155  0.00  0.00    +0.050 C 
ATOM      9  H   UNL     1      30.546  -4.808 -24.213  0.00  0.00    +0.169 HD
ENDROOT
BRANCH   5  10
ATOM     10  N   UNL     1      32.493  -7.673 -21.454  0.00  0.00    -0.300 N 
ATOM     11  C   UNL     1      32.859  -7.057 -20.186  0.00  0.00    +0.112 C 
BRANCH  10  12
ATOM     12  C   UNL     1      31.849  -8.977 -21.377  0.00  0.00    +0.123 C 
BRANCH  12  13
ATOM     13  C   UNL     1      31.903  -9.501 -19.952  0.00  0.00    +0.164 C 
BRANCH  13  14
ATOM     14  O   UNL     1      31.073 -10.650 -19.838  0.00  0.00    -0.349 OA
ATOM     15  C   UNL     1      30.701 -11.153 -21.113  0.00  0.00    +0.174 C 
ENDBRANCH  13  14
ENDBRANCH  12  13
ENDBRANCH  10  12
ENDBRANCH   5  10
BRANCH   4  16
ATOM     16  C   UNL     1      34.552  -6.253 -25.780  0.00  0.00    +0.027 C 
ATOM     17  C   UNL     1      34.619  -5.017 -26.649  0.00  0.00    +0.005 C 
ENDBRANCH   4  16
BRANCH   3  18
ATOM     18  C   UNL     1      34.755  -7.842 -23.396  0.00  0.00    +0.054 C 
BRANCH  18  19
ATOM     19  C   UNL     1      34.635  -9.152 -24.113  0.00  0.00    -0.018 C 
ATOM     20  C   UNL     1      33.842 -10.163 -23.578  0.00  0.00    -0.008 C 
ATOM     21  C   UNL     1      35.319  -9.349 -25.309  0.00  0.00    -0.004 C 
ATOM     22  C   UNL     1      33.732 -11.382 -24.246  0.00  0.00    -0.022 C 
ATOM     23  C   UNL     1      35.207 -10.569 -25.977  0.00  0.00    -0.001 C 
ATOM     24  C   UNL     1      34.414 -11.585 -25.445  0.00  0.00    -0.004 C 
ATOM     25  C   UNL     1      32.884 -12.470 -23.678  0.00  0.00    +0.031 C 
ENDBRANCH  18  19
ENDBRANCH   3  18
TORSDOF 7
ENDMDL
MODEL 6
REMARK VINA RESULT:      -7.1     11.088     13.994
REMARK  Name = 486953
REMARK  7 active torsions:
REMARK  status: ('A' for Active; 'I' for Inactive)
REMARK    1  A    between atoms: C_3  and  C_18
REMARK    2  A    between atoms: C_4  and  C_16
REMARK    3  A    between atoms: C_5  and  N_10
REMARK    4  A    between atoms: N_10  and  C_12
REMARK    5  A    between atoms: C_12  and  C_13
REMARK    6  A    between atoms: C_13  and  O_14
REMARK    7  A    between atoms: C_18  and  C_19
REMARK                            x       y       z     vdW  Elec       q    Type
REMARK                         _______ _______ _______ _____ _____    ______ ____
ROOT
ATOM      1  O   UNL     1      33.057  -8.921 -22.467  0.00  0.00    -0.266 OA
ATOM      2  N   UNL     1      34.084  -9.932 -24.243  0.00  0.00    -0.324 N 
ATOM      3  C   UNL     1      32.859 -12.313 -23.578  0.00  0.00    -0.003 A 
ATOM      4  C   UNL     1      33.790 -12.224 -24.722  0.00  0.00    -0.013 A 
ATOM      5  C   UNL     1      32.593 -11.234 -22.805  0.00  0.00    +0.101 A 
ATOM      6  C   UNL     1      34.354 -11.034 -25.021  0.00  0.00    +0.032 A 
ATOM      7  C   UNL     1      33.257  -9.929 -23.143  0.00  0.00    +0.270 A 
ATOM      8  C   UNL     1      35.324 -10.772 -26.139  0.00  0.00    +0.050 C 
ATOM      9  H   UNL     1      34.515  -9.083 -24.490  0.00  0.00    +0.169 HD
ENDROOT
BRANCH   5  10
ATOM     10  N   UNL     1      31.765 -11.174 -21.719  0.00  0.00    -0.300 N 
ATOM     11  C   UNL     1      30.325 -11.024 -21.873  0.00  0.00    +0.112 C 
BRANCH  10  12
ATOM     12  C   UNL     1      32.241 -11.504 -20.383  0.00  0.00    +0.123 C 
BRANCH  12  13
ATOM     13  C   UNL     1      31.498 -10.678 -19.347  0.00  0.00    +0.164 C 
BRANCH  13  14
ATOM     14  O   UNL     1      32.307  -9.577 -18.949  0.00  0.00    -0.349 OA
ATOM     15  C   UNL     1      31.915  -8.379 -19.602  0.00  0.00    +0.174 C 
ENDBRANCH  13  14
ENDBRANCH  12  13
ENDBRANCH  10  12
ENDBRANCH   5  10
BRANCH   4  16
ATOM     16  C   UNL     1      34.023 -13.471 -25.540  0.00  0.00    +0.027 C 
ATOM     17  C   UNL     1      33.130 -13.503 -26.760  0.00  0.00    +0.005 C 
ENDBRANCH   4  16
BRANCH   3  18
ATOM     18  C   UNL     1      32.239 -13.663 -23.298  0.00  0.00    +0.054 C 
BRANCH  18  19
ATOM     19  C   UNL     1      33.162 -14.556 -22.526  0.00  0.00    -0.018 C 
ATOM     20  C   UNL     1      33.822 -15.595 -23.176  0.00  0.00    -0.008 C 
ATOM     21  C   UNL     1      33.353 -14.340 -21.165  0.00  0.00    -0.004 C 
ATOM     22  C   UNL     1      34.681 -16.425 -22.458  0.00  0.00    -0.022 C 
ATOM     23  C   UNL     1      34.213 -15.172 -20.447  0.00  0.00    -0.001 C 
ATOM     24  C   UNL     1      34.877 -16.214 -21.093  0.00  0.00    -0.004 C 
ATOM     25  C   UNL     1      35.391 -17.541 -23.147  0.00  0.00    +0.031 C 
ENDBRANCH  18  19
ENDBRANCH   3  18
TORSDOF 7
ENDMDL
MODEL 7
REMARK VINA RESULT:      -6.9      2.302      4.967
REMARK  Name = 486953
REMARK  7 active torsions:
REMARK  status: ('A' for Active; 'I' for Inactive)
REMARK    1  A    between atoms: C_3  and  C_18
REMARK    2  A    between atoms: C_4  and  C_16
REMARK    3  A    between atoms: C_5  and  N_10
REMARK    4  A    between atoms: N_10  and  C_12
REMARK    5  A    between atoms: C_12  and  C_13
REMARK    6  A    between atoms: C_13  and  O_14
REMARK    7  A    between atoms: C_18  and  C_19
REMARK                            x       y       z     vdW  Elec       q    Type
REMARK                         _______ _______ _______ _____ _____    ______ ____
ROOT
ATOM      1  O   UNL     1      31.351 -23.222 -13.307  0.00  0.00    -0.266 OA
ATOM      2  N   UNL     1      33.638 -23.253 -13.342  0.00  0.00    -0.324 N 
ATOM      3  C   UNL     1      33.576 -23.777 -16.050  0.00  0.00    -0.003 A 
ATOM      4  C   UNL     1      34.856 -23.683 -15.317  0.00  0.00    -0.013 A 
ATOM      5  C   UNL     1      32.391 -23.630 -15.413  0.00  0.00    +0.101 A 
ATOM      6  C   UNL     1      34.839 -23.408 -13.995  0.00  0.00    +0.032 A 
ATOM      7  C   UNL     1      32.400 -23.354 -13.937  0.00  0.00    +0.270 A 
ATOM      8  C   UNL     1      36.043 -23.287 -13.103  0.00  0.00    +0.050 C 
ATOM      9  H   UNL     1      33.665 -23.055 -12.378  0.00  0.00    +0.169 HD
ENDROOT
BRANCH   5  10
ATOM     10  N   UNL     1      31.140 -23.699 -15.959  0.00  0.00    -0.300 N 
ATOM     11  C   UNL     1      30.363 -24.930 -15.919  0.00  0.00    +0.112 C 
BRANCH  10  12
ATOM     12  C   UNL     1      30.429 -22.499 -16.380  0.00  0.00    +0.123 C 
BRANCH  12  13
ATOM     13  C   UNL     1      28.941 -22.659 -16.122  0.00  0.00    +0.164 C 
BRANCH  13  14
ATOM     14  O   UNL     1      28.209 -22.013 -17.156  0.00  0.00    -0.349 OA
ATOM     15  C   UNL     1      26.821 -21.965 -16.860  0.00  0.00    +0.174 C 
ENDBRANCH  13  14
ENDBRANCH  12  13
ENDBRANCH  10  12
ENDBRANCH   5  10
BRANCH   4  16
ATOM     16  C   UNL     1      36.133 -23.847 -16.104  0.00  0.00    +0.027 C 
ATOM     17  C   UNL     1      36.970 -22.588 -16.066  0.00  0.00    +0.005 C 
ENDBRANCH   4  16
BRANCH   3  18
ATOM     18  C   UNL     1      33.651 -24.067 -17.533  0.00  0.00    +0.054 C 
BRANCH  18  19
ATOM     19  C   UNL     1      33.800 -22.815 -18.342  0.00  0.00    -0.018 C 
ATOM     20  C   UNL     1      35.065 -22.405 -18.754  0.00  0.00    -0.008 C 
ATOM     21  C   UNL     1      32.673 -22.070 -18.675  0.00  0.00    -0.004 C 
ATOM     22  C   UNL     1      35.203 -21.240 -19.507  0.00  0.00    -0.022 C 
ATOM     23  C   UNL     1      32.812 -20.904 -19.429  0.00  0.00    -0.001 C 
ATOM     24  C   UNL     1      34.077 -20.489 -19.845  0.00  0.00    -0.004 C 
ATOM     25  C   UNL     1      36.555 -20.794 -19.951  0.00  0.00    +0.031 C 
ENDBRANCH  18  19
ENDBRANCH   3  18
TORSDOF 7
ENDMDL
MODEL 8
REMARK VINA RESULT:      -6.5     14.452     17.576
REMARK  Name = 486953
REMARK  7 active torsions:
REMARK  status: ('A' for Active; 'I' for Inactive)
REMARK    1  A    between atoms: C_3  and  C_18
REMARK    2  A    between atoms: C_4  and  C_16
REMARK    3  A    between atoms: C_5  and  N_10
REMARK    4  A    between atoms: N_10  and  C_12
REMARK    5  A    between atoms: C_12  and  C_13
REMARK    6  A    between atoms: C_13  and  O_14
REMARK    7  A    between atoms: C_18  and  C_19
REMARK                            x       y       z     vdW  Elec       q    Type
REMARK                         _______ _______ _______ _____ _____    ______ ____
ROOT
ATOM      1  O   UNL     1      32.754 -12.837 -23.614  0.00  0.00    -0.266 OA
ATOM      2  N   UNL     1      34.259 -11.400 -24.565  0.00  0.00    -0.324 N 
ATOM      3  C   UNL     1      33.332  -9.374 -22.939  0.00  0.00    -0.003 A 
ATOM      4  C   UNL     1      34.395  -9.130 -23.936  0.00  0.00    -0.013 A 
ATOM      5  C   UNL     1      32.762 -10.594 -22.806  0.00  0.00    +0.101 A 
ATOM      6  C   UNL     1      34.830 -10.156 -24.700  0.00  0.00    +0.032 A 
ATOM      7  C   UNL     1      33.245 -11.710 -23.688  0.00  0.00    +0.270 A 
ATOM      8  C   UNL     1      35.892 -10.079 -25.761  0.00  0.00    +0.050 C 
ATOM      9  H   UNL     1      34.600 -12.123 -25.140  0.00  0.00    +0.169 HD
ENDROOT
BRANCH   5  10
ATOM     10  N   UNL     1      31.771 -10.958 -21.938  0.00  0.00    -0.300 N 
ATOM     11  C   UNL     1      30.366 -10.769 -22.270  0.00  0.00    +0.112 C 
BRANCH  10  12
ATOM     12  C   UNL     1      32.054 -11.771 -20.763  0.00  0.00    +0.123 C 
BRANCH  12  13
ATOM     13  C   UNL     1      31.488 -11.104 -19.521  0.00  0.00    +0.164 C 
BRANCH  13  14
ATOM     14  O   UNL     1      32.334 -10.029 -19.132  0.00  0.00    -0.349 OA
ATOM     15  C   UNL     1      31.655  -8.783 -19.190  0.00  0.00    +0.174 C 
ENDBRANCH  13  14
ENDBRANCH  12  13
ENDBRANCH  10  12
ENDBRANCH   5  10
BRANCH   4  16
ATOM     16  C   UNL     1      34.985  -7.743 -24.013  0.00  0.00    +0.027 C 
ATOM     17  C   UNL     1      34.495  -7.003 -25.238  0.00  0.00    +0.005 C 
ENDBRANCH   4  16
BRANCH   3  18
ATOM     18  C   UNL     1      32.895  -8.196 -22.096  0.00  0.00    +0.054 C 
BRANCH  18  19
ATOM     19  C   UNL     1      32.104  -7.201 -22.889  0.00  0.00    -0.018 C 
ATOM     20  C   UNL     1      32.188  -5.847 -22.578  0.00  0.00    -0.008 C 
ATOM     21  C   UNL     1      31.291  -7.638 -23.930  0.00  0.00    -0.004 C 
ATOM     22  C   UNL     1      31.451  -4.921 -23.316  0.00  0.00    -0.022 C 
ATOM     23  C   UNL     1      30.554  -6.711 -24.668  0.00  0.00    -0.001 C 
ATOM     24  C   UNL     1      30.635  -5.353 -24.361  0.00  0.00    -0.004 C 
ATOM     25  C   UNL     1      31.535  -3.469 -22.988  0.00  0.00    +0.031 C 
ENDBRANCH  18  19
ENDBRANCH   3  18
TORSDOF 7
ENDMDL
MODEL 9
REMARK VINA RESULT:      -6.5     14.448     17.599
REMARK  Name = 486953
REMARK  7 active torsions:
REMARK  status: ('A' for Active; 'I' for Inactive)
REMARK    1  A    between atoms: C_3  and  C_18
REMARK    2  A    between atoms: C_4  and  C_16
REMARK    3  A    between atoms: C_5  and  N_10
REMARK    4  A    between atoms: N_10  and  C_12
REMARK    5  A    between atoms: C_12  and  C_13
REMARK    6  A    between atoms: C_13  and  O_14
REMARK    7  A    between atoms: C_18  and  C_19
REMARK                            x       y       z     vdW  Elec       q    Type
REMARK                         _______ _______ _______ _____ _____    ______ ____
ROOT
ATOM      1  O   UNL     1      32.736  -6.668 -19.465  0.00  0.00    -0.266 OA
ATOM      2  N   UNL     1      32.143  -8.860 -19.187  0.00  0.00    -0.324 N 
ATOM      3  C   UNL     1      31.784  -9.093 -21.912  0.00  0.00    -0.003 A 
ATOM      4  C   UNL     1      31.522 -10.230 -21.005  0.00  0.00    -0.013 A 
ATOM      5  C   UNL     1      32.187  -7.894 -21.434  0.00  0.00    +0.101 A 
ATOM      6  C   UNL     1      31.727 -10.076 -19.679  0.00  0.00    +0.032 A 
ATOM      7  C   UNL     1      32.380  -7.740 -19.953  0.00  0.00    +0.270 A 
ATOM      8  C   UNL     1      31.504 -11.121 -18.622  0.00  0.00    +0.050 C 
ATOM      9  H   UNL     1      32.280  -8.784 -18.215  0.00  0.00    +0.169 HD
ENDROOT
BRANCH   5  10
ATOM     10  N   UNL     1      32.456  -6.762 -22.152  0.00  0.00    -0.300 N 
ATOM     11  C   UNL     1      33.688  -6.625 -22.916  0.00  0.00    +0.112 C 
BRANCH  10  12
ATOM     12  C   UNL     1      31.432  -5.753 -22.389  0.00  0.00    +0.123 C 
BRANCH  12  13
ATOM     13  C   UNL     1      31.205  -5.585 -23.882  0.00  0.00    +0.164 C 
BRANCH  13  14
ATOM     14  O   UNL     1      30.630  -4.308 -24.133  0.00  0.00    -0.349 OA
ATOM     15  C   UNL     1      31.324  -3.280 -23.442  0.00  0.00    +0.174 C 
ENDBRANCH  13  14
ENDBRANCH  12  13
ENDBRANCH  10  12
ENDBRANCH   5  10
BRANCH   4  16
ATOM     16  C   UNL     1      31.086 -11.538 -21.620  0.00  0.00    +0.027 C 
ATOM     17  C   UNL     1      32.196 -12.565 -21.575  0.00  0.00    +0.005 C 
ENDBRANCH   4  16
BRANCH   3  18
ATOM     18  C   UNL     1      31.557  -9.325 -23.390  0.00  0.00    +0.054 C 
BRANCH  18  19
ATOM     19  C   UNL     1      32.780  -9.866 -24.067  0.00  0.00    -0.018 C 
ATOM     20  C   UNL     1      32.690 -11.023 -24.834  0.00  0.00    -0.008 C 
ATOM     21  C   UNL     1      33.997  -9.207 -23.922  0.00  0.00    -0.004 C 
ATOM     22  C   UNL     1      33.828 -11.526 -25.463  0.00  0.00    -0.022 C 
ATOM     23  C   UNL     1      35.135  -9.710 -24.552  0.00  0.00    -0.001 C 
ATOM     24  C   UNL     1      35.051 -10.870 -25.323  0.00  0.00    -0.004 C 
ATOM     25  C   UNL     1      33.739 -12.766 -26.287  0.00  0.00    +0.031 C 
ENDBRANCH  18  19
ENDBRANCH   3  18
TORSDOF 7
ENDMDL
