MODEL 1
REMARK VINA RESULT:      -6.8      0.000      0.000
REMARK  Name = 447936
REMARK  0 active torsions:
REMARK  status: ('A' for Active; 'I' for Inactive)
REMARK                            x       y       z     vdW  Elec       q    Type
REMARK                         _______ _______ _______ _____ _____    ______ ____
ROOT
ATOM      1  N   UNL     1      34.108 -19.406 -21.062  0.00  0.00    -0.234 NA
ATOM      2  N   UNL     1      36.069 -20.360 -20.053  0.00  0.00    -0.234 NA
ATOM      3  N   UNL     1      32.589 -20.918 -20.103  0.00  0.00    -0.251 NA
ATOM      4  N   UNL     1      35.591 -22.271 -18.641  0.00  0.00    -0.237 NA
ATOM      5  C   UNL     1      34.797 -20.255 -20.311  0.00  0.00    +0.165 C 
ATOM      6  C   UNL     1      33.785 -21.208 -19.714  0.00  0.00    +0.116 C 
ATOM      7  C   UNL     1      34.248 -22.203 -18.880  0.00  0.00    +0.138 C 
ATOM      8  C   UNL     1      32.785 -19.879 -20.880  0.00  0.00    +0.202 C 
ATOM      9  C   UNL     1      36.420 -21.359 -19.232  0.00  0.00    +0.204 C 
ATOM     10  C   UNL     1      34.547 -18.292 -21.862  0.00  0.00    +0.093 C 
ATOM     11  C   UNL     1      37.063 -19.462 -20.610  0.00  0.00    +0.093 C 
ATOM     12  N   UNL     1      33.380 -23.132 -18.281  0.00  0.00    -0.342 N 
ATOM     13  H   UNL     1      33.739 -23.832 -17.690  0.00  0.00    +0.144 HD
ATOM     14  H   UNL     1      32.412 -23.082 -18.453  0.00  0.00    +0.144 HD
ENDROOT
TORSDOF 0
ENDMDL
MODEL 2
REMARK VINA RESULT:      -6.6      4.021      5.817
REMARK  Name = 447936
REMARK  0 active torsions:
REMARK  status: ('A' for Active; 'I' for Inactive)
REMARK                            x       y       z     vdW  Elec       q    Type
REMARK                         _______ _______ _______ _____ _____    ______ ____
ROOT
ATOM      1  N   UNL     1      34.098 -16.176 -24.610  0.00  0.00    -0.234 NA
ATOM      2  N   UNL     1      34.051 -14.856 -22.603  0.00  0.00    -0.234 NA
ATOM      3  N   UNL     1      35.021 -18.090 -23.613  0.00  0.00    -0.251 NA
ATOM      4  N   UNL     1      34.907 -16.028 -20.661  0.00  0.00    -0.237 NA
ATOM      5  C   UNL     1      34.284 -15.916 -23.323  0.00  0.00    +0.165 C 
ATOM      6  C   UNL     1      34.877 -17.170 -22.720  0.00  0.00    +0.116 C 
ATOM      7  C   UNL     1      35.170 -17.163 -21.373  0.00  0.00    +0.138 C 
ATOM      8  C   UNL     1      34.570 -17.509 -24.699  0.00  0.00    +0.202 C 
ATOM      9  C   UNL     1      34.368 -14.948 -21.305  0.00  0.00    +0.204 C 
ATOM     10  C   UNL     1      33.563 -15.355 -25.665  0.00  0.00    +0.093 C 
ATOM     11  C   UNL     1      33.482 -13.639 -23.152  0.00  0.00    +0.093 C 
ATOM     12  N   UNL     1      35.723 -18.284 -20.730  0.00  0.00    -0.342 N 
ATOM     13  H   UNL     1      35.921 -18.250 -19.767  0.00  0.00    +0.144 HD
ATOM     14  H   UNL     1      35.912 -19.102 -21.243  0.00  0.00    +0.144 HD
ENDROOT
TORSDOF 0
ENDMDL
MODEL 3
REMARK VINA RESULT:      -6.6      5.369      7.320
REMARK  Name = 447936
REMARK  0 active torsions:
REMARK  status: ('A' for Active; 'I' for Inactive)
REMARK                            x       y       z     vdW  Elec       q    Type
REMARK                         _______ _______ _______ _____ _____    ______ ____
ROOT
ATOM      1  N   UNL     1      34.052 -15.184 -22.045  0.00  0.00    -0.234 NA
ATOM      2  N   UNL     1      34.800 -16.733 -23.723  0.00  0.00    -0.234 NA
ATOM      3  N   UNL     1      32.802 -13.838 -23.508  0.00  0.00    -0.251 NA
ATOM      4  N   UNL     1      33.979 -16.215 -25.944  0.00  0.00    -0.237 NA
ATOM      5  C   UNL     1      34.162 -15.694 -23.265  0.00  0.00    +0.165 C 
ATOM      6  C   UNL     1      33.345 -14.801 -24.172  0.00  0.00    +0.116 C 
ATOM      7  C   UNL     1      33.292 -15.117 -25.513  0.00  0.00    +0.138 C 
ATOM      8  C   UNL     1      33.214 -14.066 -22.283  0.00  0.00    +0.202 C 
ATOM      9  C   UNL     1      34.688 -16.956 -25.039  0.00  0.00    +0.204 C 
ATOM     10  C   UNL     1      34.614 -15.617 -20.793  0.00  0.00    +0.093 C 
ATOM     11  C   UNL     1      35.591 -17.608 -22.879  0.00  0.00    +0.093 C 
ATOM     12  N   UNL     1      32.558 -14.343 -26.428  0.00  0.00    -0.342 N 
ATOM     13  H   UNL     1      32.539 -14.593 -27.379  0.00  0.00    +0.144 HD
ATOM     14  H   UNL     1      32.062 -13.552 -26.116  0.00  0.00    +0.144 HD
ENDROOT
TORSDOF 0
ENDMDL
MODEL 4
REMARK VINA RESULT:      -6.6      3.588      5.391
REMARK  Name = 447936
REMARK  0 active torsions:
REMARK  status: ('A' for Active; 'I' for Inactive)
REMARK                            x       y       z     vdW  Elec       q    Type
REMARK                         _______ _______ _______ _____ _____    ______ ____
ROOT
ATOM      1  N   UNL     1      34.204 -14.878 -22.511  0.00  0.00    -0.234 NA
ATOM      2  N   UNL     1      34.562 -16.724 -24.006  0.00  0.00    -0.234 NA
ATOM      3  N   UNL     1      34.961 -15.985 -20.583  0.00  0.00    -0.251 NA
ATOM      4  N   UNL     1      35.460 -18.691 -22.909  0.00  0.00    -0.237 NA
ATOM      5  C   UNL     1      34.566 -16.105 -22.860  0.00  0.00    +0.165 C 
ATOM      6  C   UNL     1      35.045 -16.781 -21.595  0.00  0.00    +0.116 C 
ATOM      7  C   UNL     1      35.483 -18.085 -21.685  0.00  0.00    +0.138 C 
ATOM      8  C   UNL     1      34.475 -14.891 -21.120  0.00  0.00    +0.202 C 
ATOM      9  C   UNL     1      35.007 -17.988 -23.991  0.00  0.00    +0.204 C 
ATOM     10  C   UNL     1      33.676 -13.795 -23.299  0.00  0.00    +0.093 C 
ATOM     11  C   UNL     1      34.110 -16.103 -25.237  0.00  0.00    +0.093 C 
ATOM     12  N   UNL     1      35.945 -18.791 -20.561  0.00  0.00    -0.342 N 
ATOM     13  H   UNL     1      36.252 -19.721 -20.656  0.00  0.00    +0.144 HD
ATOM     14  H   UNL     1      35.963 -18.354 -19.679  0.00  0.00    +0.144 HD
ENDROOT
TORSDOF 0
ENDMDL
MODEL 5
REMARK VINA RESULT:      -6.5      5.087      7.498
REMARK  Name = 447936
REMARK  0 active torsions:
REMARK  status: ('A' for Active; 'I' for Inactive)
REMARK                            x       y       z     vdW  Elec       q    Type
REMARK                         _______ _______ _______ _____ _____    ______ ____
ROOT
ATOM      1  N   UNL     1      34.934 -17.188 -23.733  0.00  0.00    -0.234 NA
ATOM      2  N   UNL     1      34.106 -15.214 -22.641  0.00  0.00    -0.234 NA
ATOM      3  N   UNL     1      34.069 -16.666 -25.852  0.00  0.00    -0.251 NA
ATOM      4  N   UNL     1      32.872 -13.743 -24.121  0.00  0.00    -0.237 NA
ATOM      5  C   UNL     1      34.299 -16.027 -23.640  0.00  0.00    +0.165 C 
ATOM      6  C   UNL     1      33.759 -15.729 -25.021  0.00  0.00    +0.116 C 
ATOM      7  C   UNL     1      33.048 -14.561 -25.199  0.00  0.00    +0.138 C 
ATOM      8  C   UNL     1      34.746 -17.502 -25.101  0.00  0.00    +0.202 C 
ATOM      9  C   UNL     1      33.403 -14.107 -22.914  0.00  0.00    +0.204 C 
ATOM     10  C   UNL     1      35.638 -17.954 -22.738  0.00  0.00    +0.093 C 
ATOM     11  C   UNL     1      34.611 -15.472 -21.306  0.00  0.00    +0.093 C 
ATOM     12  N   UNL     1      32.510 -14.204 -26.448  0.00  0.00    -0.342 N 
ATOM     13  H   UNL     1      32.007 -13.365 -26.544  0.00  0.00    +0.144 HD
ATOM     14  H   UNL     1      32.638 -14.794 -27.225  0.00  0.00    +0.144 HD
ENDROOT
TORSDOF 0
ENDMDL
MODEL 6
REMARK VINA RESULT:      -6.4      4.914      7.028
REMARK  Name = 447936
REMARK  0 active torsions:
REMARK  status: ('A' for Active; 'I' for Inactive)
REMARK                            x       y       z     vdW  Elec       q    Type
REMARK                         _______ _______ _______ _____ _____    ______ ____
ROOT
ATOM      1  N   UNL     1      34.692 -16.240 -22.088  0.00  0.00    -0.234 NA
ATOM      2  N   UNL     1      34.631 -17.589 -24.075  0.00  0.00    -0.234 NA
ATOM      3  N   UNL     1      33.844 -14.296 -23.096  0.00  0.00    -0.251 NA
ATOM      4  N   UNL     1      33.793 -16.404 -26.017  0.00  0.00    -0.237 NA
ATOM      5  C   UNL     1      34.466 -16.508 -23.367  0.00  0.00    +0.165 C 
ATOM      6  C   UNL     1      33.923 -15.235 -23.977  0.00  0.00    +0.116 C 
ATOM      7  C   UNL     1      33.603 -15.247 -25.318  0.00  0.00    +0.138 C 
ATOM      8  C   UNL     1      34.289 -14.883 -22.011  0.00  0.00    +0.202 C 
ATOM      9  C   UNL     1      34.291 -17.500 -25.368  0.00  0.00    +0.204 C 
ATOM     10  C   UNL     1      35.205 -17.071 -21.031  0.00  0.00    +0.093 C 
ATOM     11  C   UNL     1      35.150 -18.825 -23.519  0.00  0.00    +0.093 C 
ATOM     12  N   UNL     1      33.092 -14.110 -25.967  0.00  0.00    -0.342 N 
ATOM     13  H   UNL     1      32.872 -14.148 -26.926  0.00  0.00    +0.144 HD
ATOM     14  H   UNL     1      32.954 -13.276 -25.463  0.00  0.00    +0.144 HD
ENDROOT
TORSDOF 0
ENDMDL
MODEL 7
REMARK VINA RESULT:      -6.4      3.956      5.940
REMARK  Name = 447936
REMARK  0 active torsions:
REMARK  status: ('A' for Active; 'I' for Inactive)
REMARK                            x       y       z     vdW  Elec       q    Type
REMARK                         _______ _______ _______ _____ _____    ______ ____
ROOT
ATOM      1  N   UNL     1      34.708 -16.202 -21.587  0.00  0.00    -0.234 NA
ATOM      2  N   UNL     1      34.164 -15.591 -23.846  0.00  0.00    -0.234 NA
ATOM      3  N   UNL     1      35.133 -18.464 -22.050  0.00  0.00    -0.251 NA
ATOM      4  N   UNL     1      34.301 -17.444 -25.403  0.00  0.00    -0.237 NA
ATOM      5  C   UNL     1      34.518 -16.396 -22.885  0.00  0.00    +0.165 C 
ATOM      6  C   UNL     1      34.801 -17.859 -23.140  0.00  0.00    +0.116 C 
ATOM      7  C   UNL     1      34.674 -18.327 -24.431  0.00  0.00    +0.138 C 
ATOM      8  C   UNL     1      35.077 -17.502 -21.160  0.00  0.00    +0.202 C 
ATOM      9  C   UNL     1      34.069 -16.139 -25.065  0.00  0.00    +0.204 C 
ATOM     10  C   UNL     1      34.585 -15.011 -20.788  0.00  0.00    +0.093 C 
ATOM     11  C   UNL     1      33.886 -14.183 -23.633  0.00  0.00    +0.093 C 
ATOM     12  N   UNL     1      34.918 -19.672 -24.759  0.00  0.00    -0.342 N 
ATOM     13  H   UNL     1      34.819 -19.977 -25.689  0.00  0.00    +0.144 HD
ATOM     14  H   UNL     1      35.188 -20.308 -24.058  0.00  0.00    +0.144 HD
ENDROOT
TORSDOF 0
ENDMDL
MODEL 8
REMARK VINA RESULT:      -6.4      4.048      6.363
REMARK  Name = 447936
REMARK  0 active torsions:
REMARK  status: ('A' for Active; 'I' for Inactive)
REMARK                            x       y       z     vdW  Elec       q    Type
REMARK                         _______ _______ _______ _____ _____    ______ ____
ROOT
ATOM      1  N   UNL     1      34.685 -17.884 -23.993  0.00  0.00    -0.234 NA
ATOM      2  N   UNL     1      34.837 -17.078 -21.735  0.00  0.00    -0.234 NA
ATOM      3  N   UNL     1      34.266 -15.788 -24.964  0.00  0.00    -0.251 NA
ATOM      4  N   UNL     1      34.513 -14.683 -21.544  0.00  0.00    -0.237 NA
ATOM      5  C   UNL     1      34.670 -16.980 -23.022  0.00  0.00    +0.165 C 
ATOM      6  C   UNL     1      34.398 -15.649 -23.688  0.00  0.00    +0.116 C 
ATOM      7  C   UNL     1      34.330 -14.529 -22.889  0.00  0.00    +0.138 C 
ATOM      8  C   UNL     1      34.433 -17.078 -25.131  0.00  0.00    +0.202 C 
ATOM      9  C   UNL     1      34.754 -15.933 -21.044  0.00  0.00    +0.204 C 
ATOM     10  C   UNL     1      34.898 -19.307 -23.946  0.00  0.00    +0.093 C 
ATOM     11  C   UNL     1      35.100 -18.339 -21.067  0.00  0.00    +0.093 C 
ATOM     12  N   UNL     1      34.082 -13.252 -23.422  0.00  0.00    -0.342 N 
ATOM     13  H   UNL     1      34.039 -12.470 -22.827  0.00  0.00    +0.144 HD
ATOM     14  H   UNL     1      33.951 -13.141 -24.391  0.00  0.00    +0.144 HD
ENDROOT
TORSDOF 0
ENDMDL
MODEL 9
REMARK VINA RESULT:      -6.3      3.874      6.086
REMARK  Name = 447936
REMARK  0 active torsions:
REMARK  status: ('A' for Active; 'I' for Inactive)
REMARK                            x       y       z     vdW  Elec       q    Type
REMARK                         _______ _______ _______ _____ _____    ______ ____
ROOT
ATOM      1  N   UNL     1      31.188 -23.530 -14.825  0.00  0.00    -0.234 NA
ATOM      2  N   UNL     1      33.567 -23.792 -15.036  0.00  0.00    -0.234 NA
ATOM      3  N   UNL     1      30.842 -22.749 -17.012  0.00  0.00    -0.251 NA
ATOM      4  N   UNL     1      34.412 -23.178 -17.224  0.00  0.00    -0.237 NA
ATOM      5  C   UNL     1      32.365 -23.490 -15.436  0.00  0.00    +0.165 C 
ATOM      6  C   UNL     1      32.098 -22.984 -16.836  0.00  0.00    +0.116 C 
ATOM      7  C   UNL     1      33.172 -22.849 -17.689  0.00  0.00    +0.138 C 
ATOM      8  C   UNL     1      30.325 -23.066 -15.849  0.00  0.00    +0.202 C 
ATOM      9  C   UNL     1      34.543 -23.627 -15.938  0.00  0.00    +0.204 C 
ATOM     10  C   UNL     1      30.838 -23.929 -13.487  0.00  0.00    +0.093 C 
ATOM     11  C   UNL     1      33.855 -24.280 -13.700  0.00  0.00    +0.093 C 
ATOM     12  N   UNL     1      33.017 -22.386 -19.008  0.00  0.00    -0.342 N 
ATOM     13  H   UNL     1      33.801 -22.299 -19.594  0.00  0.00    +0.144 HD
ATOM     14  H   UNL     1      32.122 -22.149 -19.344  0.00  0.00    +0.144 HD
ENDROOT
TORSDOF 0
ENDMDL
