MODEL 1
REMARK VINA RESULT:     -10.8      0.000      0.000
REMARK  Name = 5556
REMARK  1 active torsions:
REMARK  status: ('A' for Active; 'I' for Inactive)
REMARK    1  A    between atoms: C_9  and  C_18
REMARK                            x       y       z     vdW  Elec       q    Type
REMARK                         _______ _______ _______ _____ _____    ______ ____
ROOT
ATOM      1 CL   UNL     1      31.569 -11.994 -19.941  0.00  0.00    -0.082 Cl
ATOM      2  N   UNL     1      33.926 -15.630 -23.991  0.00  0.00    -0.279 N 
ATOM      3  N   UNL     1      33.253 -13.322 -25.873  0.00  0.00    -0.262 NA
ATOM      4  N   UNL     1      34.278 -16.645 -25.916  0.00  0.00    -0.131 NA
ATOM      5  N   UNL     1      34.920 -17.356 -24.932  0.00  0.00    -0.133 NA
ATOM      6  C   UNL     1      33.439 -14.710 -23.037  0.00  0.00    +0.068 C 
ATOM      7  C   UNL     1      33.072 -13.397 -23.391  0.00  0.00    +0.034 C 
ATOM      8  C   UNL     1      33.663 -15.632 -25.343  0.00  0.00    +0.172 A 
ATOM      9  C   UNL     1      33.396 -12.767 -24.716  0.00  0.00    +0.079 C 
ATOM     10  C   UNL     1      32.733 -14.672 -25.975  0.00  0.00    +0.191 C 
ATOM     11  C   UNL     1      34.681 -16.756 -23.788  0.00  0.00    +0.147 A 
ATOM     12  C   UNL     1      33.286 -15.140 -21.709  0.00  0.00    +0.019 C 
ATOM     13  C   UNL     1      32.474 -12.572 -22.422  0.00  0.00    +0.014 C 
ATOM     14  C   UNL     1      32.715 -14.298 -20.755  0.00  0.00    +0.013 C 
ATOM     15  C   UNL     1      32.295 -13.022 -21.115  0.00  0.00    +0.058 C 
ATOM     16  C   UNL     1      35.313 -17.173 -22.519  0.00  0.00    +0.074 C 
ENDROOT
BRANCH   9  18
ATOM     17 CL   UNL     1      35.176 -11.937 -27.100  0.00  0.00    -0.082 Cl
ATOM     18  C   UNL     1      33.963 -11.386 -24.718  0.00  0.00    +0.028 C 
ATOM     19  C   UNL     1      34.773 -10.934 -25.754  0.00  0.00    +0.059 C 
ATOM     20  C   UNL     1      33.653 -10.558 -23.646  0.00  0.00    +0.002 C 
ATOM     21  C   UNL     1      35.280  -9.635 -25.715  0.00  0.00    +0.011 C 
ATOM     22  C   UNL     1      34.161  -9.260 -23.608  0.00  0.00    +0.000 C 
ATOM     23  C   UNL     1      34.974  -8.798 -24.641  0.00  0.00    +0.001 C 
ENDBRANCH   9  18
TORSDOF 1
ENDMDL
MODEL 2
REMARK VINA RESULT:     -10.6     11.121     14.042
REMARK  Name = 5556
REMARK  1 active torsions:
REMARK  status: ('A' for Active; 'I' for Inactive)
REMARK    1  A    between atoms: C_9  and  C_18
REMARK                            x       y       z     vdW  Elec       q    Type
REMARK                         _______ _______ _______ _____ _____    ______ ____
ROOT
ATOM      1 CL   UNL     1      31.429 -23.963 -13.553  0.00  0.00    -0.082 Cl
ATOM      2  N   UNL     1      35.124 -22.413 -17.927  0.00  0.00    -0.279 N 
ATOM      3  N   UNL     1      37.201 -22.598 -15.699  0.00  0.00    -0.262 NA
ATOM      4  N   UNL     1      36.831 -21.493 -18.975  0.00  0.00    -0.131 NA
ATOM      5  N   UNL     1      35.917 -21.897 -19.917  0.00  0.00    -0.133 NA
ATOM      6  C   UNL     1      34.283 -22.866 -16.887  0.00  0.00    +0.068 C 
ATOM      7  C   UNL     1      34.791 -23.212 -15.620  0.00  0.00    +0.034 C 
ATOM      8  C   UNL     1      36.338 -21.779 -17.788  0.00  0.00    +0.172 A 
ATOM      9  C   UNL     1      36.253 -23.390 -15.325  0.00  0.00    +0.079 C 
ATOM     10  C   UNL     1      36.898 -21.409 -16.470  0.00  0.00    +0.191 C 
ATOM     11  C   UNL     1      34.894 -22.419 -19.279  0.00  0.00    +0.147 A 
ATOM     12  C   UNL     1      32.900 -22.933 -17.124  0.00  0.00    +0.019 C 
ATOM     13  C   UNL     1      33.889 -23.532 -14.589  0.00  0.00    +0.014 C 
ATOM     14  C   UNL     1      32.023 -23.277 -16.096  0.00  0.00    +0.013 C 
ATOM     15  C   UNL     1      32.516 -23.561 -14.826  0.00  0.00    +0.058 C 
ATOM     16  C   UNL     1      33.765 -23.072 -19.975  0.00  0.00    +0.074 C 
ENDROOT
BRANCH   9  18
ATOM     17 CL   UNL     1      37.056 -23.019 -12.364  0.00  0.00    -0.082 Cl
ATOM     18  C   UNL     1      36.674 -24.599 -14.557  0.00  0.00    +0.028 C 
ATOM     19  C   UNL     1      37.050 -24.519 -13.221  0.00  0.00    +0.059 C 
ATOM     20  C   UNL     1      36.677 -25.819 -15.223  0.00  0.00    +0.002 C 
ATOM     21  C   UNL     1      37.435 -25.675 -12.543  0.00  0.00    +0.011 C 
ATOM     22  C   UNL     1      37.062 -26.975 -14.544  0.00  0.00    +0.000 C 
ATOM     23  C   UNL     1      37.441 -26.903 -13.205  0.00  0.00    +0.001 C 
ENDBRANCH   9  18
TORSDOF 1
ENDMDL
MODEL 3
REMARK VINA RESULT:      -9.9      4.418      6.775
REMARK  Name = 5556
REMARK  1 active torsions:
REMARK  status: ('A' for Active; 'I' for Inactive)
REMARK    1  A    between atoms: C_9  and  C_18
REMARK                            x       y       z     vdW  Elec       q    Type
REMARK                         _______ _______ _______ _____ _____    ______ ____
ROOT
ATOM      1 CL   UNL     1      35.615 -10.344 -26.273  0.00  0.00    -0.082 Cl
ATOM      2  N   UNL     1      32.265  -9.710 -21.420  0.00  0.00    -0.279 N 
ATOM      3  N   UNL     1      33.106  -6.789 -21.706  0.00  0.00    -0.262 NA
ATOM      4  N   UNL     1      31.546  -8.955 -19.478  0.00  0.00    -0.131 NA
ATOM      5  N   UNL     1      30.903 -10.139 -19.742  0.00  0.00    -0.133 NA
ATOM      6  C   UNL     1      32.998  -9.814 -22.622  0.00  0.00    +0.068 C 
ATOM      7  C   UNL     1      33.538  -8.683 -23.263  0.00  0.00    +0.034 C 
ATOM      8  C   UNL     1      32.378  -8.719 -20.470  0.00  0.00    +0.172 A 
ATOM      9  C   UNL     1      33.183  -7.269 -22.903  0.00  0.00    +0.079 C 
ATOM     10  C   UNL     1      33.381  -7.636 -20.562  0.00  0.00    +0.191 C 
ATOM     11  C   UNL     1      31.360 -10.592 -20.888  0.00  0.00    +0.147 A 
ATOM     12  C   UNL     1      33.219 -11.091 -23.163  0.00  0.00    +0.019 C 
ATOM     13  C   UNL     1      34.365  -8.866 -24.386  0.00  0.00    +0.014 C 
ATOM     14  C   UNL     1      34.022 -11.251 -24.292  0.00  0.00    +0.013 C 
ATOM     15  C   UNL     1      34.607 -10.141 -24.893  0.00  0.00    +0.058 C 
ATOM     16  C   UNL     1      30.808 -11.791 -21.553  0.00  0.00    +0.074 C 
ENDROOT
BRANCH   9  18
ATOM     17 CL   UNL     1      30.491  -5.758 -22.768  0.00  0.00    -0.082 Cl
ATOM     18  C   UNL     1      32.856  -6.321 -24.009  0.00  0.00    +0.028 C 
ATOM     19  C   UNL     1      31.666  -5.602 -24.024  0.00  0.00    +0.059 C 
ATOM     20  C   UNL     1      33.786  -6.176 -25.032  0.00  0.00    +0.002 C 
ATOM     21  C   UNL     1      31.403  -4.726 -25.077  0.00  0.00    +0.011 C 
ATOM     22  C   UNL     1      33.522  -5.301 -26.085  0.00  0.00    +0.000 C 
ATOM     23  C   UNL     1      32.331  -4.577 -26.108  0.00  0.00    +0.001 C 
ENDBRANCH   9  18
TORSDOF 1
ENDMDL
MODEL 4
REMARK VINA RESULT:      -9.5     12.725     14.868
REMARK  Name = 5556
REMARK  1 active torsions:
REMARK  status: ('A' for Active; 'I' for Inactive)
REMARK    1  A    between atoms: C_9  and  C_18
REMARK                            x       y       z     vdW  Elec       q    Type
REMARK                         _______ _______ _______ _____ _____    ______ ____
ROOT
ATOM      1 CL   UNL     1      37.014 -20.781 -17.766  0.00  0.00    -0.082 Cl
ATOM      2  N   UNL     1      36.896 -24.897 -13.498  0.00  0.00    -0.279 N 
ATOM      3  N   UNL     1      34.218 -23.581 -12.855  0.00  0.00    -0.262 NA
ATOM      4  N   UNL     1      36.495 -25.868 -11.560  0.00  0.00    -0.131 NA
ATOM      5  N   UNL     1      37.431 -26.617 -12.229  0.00  0.00    -0.133 NA
ATOM      6  C   UNL     1      36.856 -23.963 -14.556  0.00  0.00    +0.068 C 
ATOM      7  C   UNL     1      35.735 -23.140 -14.778  0.00  0.00    +0.034 C 
ATOM      8  C   UNL     1      36.201 -24.828 -12.311  0.00  0.00    +0.172 A 
ATOM      9  C   UNL     1      34.405 -23.340 -14.109  0.00  0.00    +0.079 C 
ATOM     10  C   UNL     1      35.349 -23.673 -11.953  0.00  0.00    +0.191 C 
ATOM     11  C   UNL     1      37.680 -26.014 -13.370  0.00  0.00    +0.147 A 
ATOM     12  C   UNL     1      37.986 -23.836 -15.380  0.00  0.00    +0.019 C 
ATOM     13  C   UNL     1      35.807 -22.143 -15.767  0.00  0.00    +0.014 C 
ATOM     14  C   UNL     1      38.030 -22.858 -16.373  0.00  0.00    +0.013 C 
ATOM     15  C   UNL     1      36.948 -22.002 -16.555  0.00  0.00    +0.058 C 
ATOM     16  C   UNL     1      38.553 -26.599 -14.409  0.00  0.00    +0.074 C 
ENDROOT
BRANCH   9  18
ATOM     17 CL   UNL     1      31.675 -23.065 -12.688  0.00  0.00    -0.082 Cl
ATOM     18  C   UNL     1      33.177 -23.291 -14.956  0.00  0.00    +0.028 C 
ATOM     19  C   UNL     1      31.910 -23.167 -14.396  0.00  0.00    +0.059 C 
ATOM     20  C   UNL     1      33.338 -23.371 -16.334  0.00  0.00    +0.002 C 
ATOM     21  C   UNL     1      30.791 -23.123 -15.226  0.00  0.00    +0.011 C 
ATOM     22  C   UNL     1      32.218 -23.327 -17.164  0.00  0.00    +0.000 C 
ATOM     23  C   UNL     1      30.945 -23.204 -16.610  0.00  0.00    +0.001 C 
ENDBRANCH   9  18
TORSDOF 1
ENDMDL
MODEL 5
REMARK VINA RESULT:      -9.0     11.132     14.122
REMARK  Name = 5556
REMARK  1 active torsions:
REMARK  status: ('A' for Active; 'I' for Inactive)
REMARK    1  A    between atoms: C_9  and  C_18
REMARK                            x       y       z     vdW  Elec       q    Type
REMARK                         _______ _______ _______ _____ _____    ______ ____
ROOT
ATOM      1 CL   UNL     1      30.331 -22.641 -14.995  0.00  0.00    -0.082 Cl
ATOM      2  N   UNL     1      35.544 -24.641 -12.993  0.00  0.00    -0.279 N 
ATOM      3  N   UNL     1      36.045 -25.131 -15.964  0.00  0.00    -0.262 NA
ATOM      4  N   UNL     1      37.384 -25.843 -12.835  0.00  0.00    -0.131 NA
ATOM      5  N   UNL     1      37.215 -25.161 -11.655  0.00  0.00    -0.133 NA
ATOM      6  C   UNL     1      34.347 -24.093 -13.506  0.00  0.00    +0.068 C 
ATOM      7  C   UNL     1      34.116 -23.980 -14.890  0.00  0.00    +0.034 C 
ATOM      8  C   UNL     1      36.368 -25.550 -13.618  0.00  0.00    +0.172 A 
ATOM      9  C   UNL     1      35.179 -24.174 -15.934  0.00  0.00    +0.079 C 
ATOM     10  C   UNL     1      36.043 -26.148 -14.931  0.00  0.00    +0.191 C 
ATOM     11  C   UNL     1      36.102 -24.470 -11.752  0.00  0.00    +0.147 A 
ATOM     12  C   UNL     1      33.354 -23.686 -12.599  0.00  0.00    +0.019 C 
ATOM     13  C   UNL     1      32.856 -23.546 -15.337  0.00  0.00    +0.014 C 
ATOM     14  C   UNL     1      32.119 -23.233 -13.062  0.00  0.00    +0.013 C 
ATOM     15  C   UNL     1      31.865 -23.179 -14.428  0.00  0.00    +0.058 C 
ATOM     16  C   UNL     1      35.659 -23.516 -10.713  0.00  0.00    +0.074 C 
ENDROOT
BRANCH   9  18
ATOM     17 CL   UNL     1      37.702 -22.393 -16.029  0.00  0.00    -0.082 Cl
ATOM     18  C   UNL     1      35.282 -23.164 -17.028  0.00  0.00    +0.028 C 
ATOM     19  C   UNL     1      36.384 -22.324 -17.143  0.00  0.00    +0.059 C 
ATOM     20  C   UNL     1      34.235 -23.088 -17.939  0.00  0.00    +0.002 C 
ATOM     21  C   UNL     1      36.439 -21.396 -18.183  0.00  0.00    +0.011 C 
ATOM     22  C   UNL     1      34.290 -22.160 -18.979  0.00  0.00    +0.000 C 
ATOM     23  C   UNL     1      35.391 -21.314 -19.100  0.00  0.00    +0.001 C 
ENDBRANCH   9  18
TORSDOF 1
ENDMDL
MODEL 6
REMARK VINA RESULT:      -8.8     12.159     14.824
REMARK  Name = 5556
REMARK  1 active torsions:
REMARK  status: ('A' for Active; 'I' for Inactive)
REMARK    1  A    between atoms: C_9  and  C_18
REMARK                            x       y       z     vdW  Elec       q    Type
REMARK                         _______ _______ _______ _____ _____    ______ ____
ROOT
ATOM      1 CL   UNL     1      35.339 -24.286 -10.638  0.00  0.00    -0.082 Cl
ATOM      2  N   UNL     1      34.989 -22.958 -16.408  0.00  0.00    -0.279 N 
ATOM      3  N   UNL     1      38.027 -22.801 -16.147  0.00  0.00    -0.262 NA
ATOM      4  N   UNL     1      35.453 -22.046 -18.360  0.00  0.00    -0.131 NA
ATOM      5  N   UNL     1      34.195 -22.593 -18.430  0.00  0.00    -0.133 NA
ATOM      6  C   UNL     1      35.110 -23.355 -15.058  0.00  0.00    +0.068 C 
ATOM      7  C   UNL     1      36.365 -23.545 -14.449  0.00  0.00    +0.034 C 
ATOM      8  C   UNL     1      35.909 -22.242 -17.141  0.00  0.00    +0.172 A 
ATOM      9  C   UNL     1      37.661 -23.607 -15.207  0.00  0.00    +0.079 C 
ATOM     10  C   UNL     1      37.159 -21.713 -16.554  0.00  0.00    +0.191 C 
ATOM     11  C   UNL     1      33.921 -23.109 -17.254  0.00  0.00    +0.147 A 
ATOM     12  C   UNL     1      33.938 -23.525 -14.303  0.00  0.00    +0.019 C 
ATOM     13  C   UNL     1      36.420 -23.815 -13.070  0.00  0.00    +0.014 C 
ATOM     14  C   UNL     1      34.011 -23.818 -12.941  0.00  0.00    +0.013 C 
ATOM     15  C   UNL     1      35.251 -23.947 -12.323  0.00  0.00    +0.058 C 
ATOM     16  C   UNL     1      32.695 -23.892 -16.989  0.00  0.00    +0.074 C 
ENDROOT
BRANCH   9  18
ATOM     17 CL   UNL     1      36.619 -26.512 -15.344  0.00  0.00    -0.082 Cl
ATOM     18  C   UNL     1      38.614 -24.709 -14.881  0.00  0.00    +0.028 C 
ATOM     19  C   UNL     1      38.226 -26.043 -14.920  0.00  0.00    +0.059 C 
ATOM     20  C   UNL     1      39.914 -24.358 -14.537  0.00  0.00    +0.002 C 
ATOM     21  C   UNL     1      39.151 -27.039 -14.610  0.00  0.00    +0.011 C 
ATOM     22  C   UNL     1      40.839 -25.355 -14.227  0.00  0.00    +0.000 C 
ATOM     23  C   UNL     1      40.457 -26.695 -14.263  0.00  0.00    +0.001 C 
ENDBRANCH   9  18
TORSDOF 1
ENDMDL
MODEL 7
REMARK VINA RESULT:      -8.3      4.109      7.461
REMARK  Name = 5556
REMARK  1 active torsions:
REMARK  status: ('A' for Active; 'I' for Inactive)
REMARK    1  A    between atoms: C_9  and  C_18
REMARK                            x       y       z     vdW  Elec       q    Type
REMARK                         _______ _______ _______ _____ _____    ______ ____
ROOT
ATOM      1 CL   UNL     1      31.911  -8.356 -19.054  0.00  0.00    -0.082 Cl
ATOM      2  N   UNL     1      32.826  -5.996 -24.418  0.00  0.00    -0.279 N 
ATOM      3  N   UNL     1      34.776  -8.330 -24.673  0.00  0.00    -0.262 NA
ATOM      4  N   UNL     1      33.855  -5.381 -26.268  0.00  0.00    -0.131 NA
ATOM      5  N   UNL     1      32.662  -4.705 -26.196  0.00  0.00    -0.133 NA
ATOM      6  C   UNL     1      32.566  -6.629 -23.183  0.00  0.00    +0.068 C 
ATOM      7  C   UNL     1      33.163  -7.857 -22.837  0.00  0.00    +0.034 C 
ATOM      8  C   UNL     1      33.959  -6.128 -25.189  0.00  0.00    +0.172 A 
ATOM      9  C   UNL     1      33.903  -8.729 -23.810  0.00  0.00    +0.079 C 
ATOM     10  C   UNL     1      35.128  -6.926 -24.759  0.00  0.00    +0.191 C 
ATOM     11  C   UNL     1      32.071  -5.060 -25.077  0.00  0.00    +0.147 A 
ATOM     12  C   UNL     1      31.716  -5.987 -22.267  0.00  0.00    +0.019 C 
ATOM     13  C   UNL     1      32.965  -8.370 -21.543  0.00  0.00    +0.014 C 
ATOM     14  C   UNL     1      31.511  -6.525 -20.997  0.00  0.00    +0.013 C 
ATOM     15  C   UNL     1      32.148  -7.706 -20.630  0.00  0.00    +0.058 C 
ATOM     16  C   UNL     1      30.705  -4.623 -24.720  0.00  0.00    +0.074 C 
ENDROOT
BRANCH   9  18
ATOM     17 CL   UNL     1      35.360 -10.504 -25.877  0.00  0.00    -0.082 Cl
ATOM     18  C   UNL     1      33.594 -10.190 -23.820  0.00  0.00    +0.028 C 
ATOM     19  C   UNL     1      34.207 -11.058 -24.718  0.00  0.00    +0.059 C 
ATOM     20  C   UNL     1      32.669 -10.662 -22.896  0.00  0.00    +0.002 C 
ATOM     21  C   UNL     1      33.889 -12.416 -24.690  0.00  0.00    +0.011 C 
ATOM     22  C   UNL     1      32.352 -12.020 -22.869  0.00  0.00    +0.000 C 
ATOM     23  C   UNL     1      32.961 -12.896 -23.766  0.00  0.00    +0.001 C 
ENDBRANCH   9  18
TORSDOF 1
ENDMDL
MODEL 8
REMARK VINA RESULT:      -8.1      2.989      5.955
REMARK  Name = 5556
REMARK  1 active torsions:
REMARK  status: ('A' for Active; 'I' for Inactive)
REMARK    1  A    between atoms: C_9  and  C_18
REMARK                            x       y       z     vdW  Elec       q    Type
REMARK                         _______ _______ _______ _____ _____    ______ ____
ROOT
ATOM      1 CL   UNL     1      31.552 -13.390 -20.385  0.00  0.00    -0.082 Cl
ATOM      2  N   UNL     1      32.969  -8.594 -23.576  0.00  0.00    -0.279 N 
ATOM      3  N   UNL     1      34.879 -10.553 -24.931  0.00  0.00    -0.262 NA
ATOM      4  N   UNL     1      34.164  -7.155 -24.741  0.00  0.00    -0.131 NA
ATOM      5  N   UNL     1      32.986  -6.546 -24.386  0.00  0.00    -0.133 NA
ATOM      6  C   UNL     1      32.592  -9.771 -22.892  0.00  0.00    +0.068 C 
ATOM      7  C   UNL     1      33.129 -11.029 -23.226  0.00  0.00    +0.034 C 
ATOM      8  C   UNL     1      34.160  -8.368 -24.230  0.00  0.00    +0.172 A 
ATOM      9  C   UNL     1      33.927 -11.293 -24.471  0.00  0.00    +0.079 C 
ATOM     10  C   UNL     1      35.269  -9.346 -24.228  0.00  0.00    +0.191 C 
ATOM     11  C   UNL     1      32.295  -7.405 -23.671  0.00  0.00    +0.147 A 
ATOM     12  C   UNL     1      31.684  -9.664 -21.826  0.00  0.00    +0.019 C 
ATOM     13  C   UNL     1      32.811 -12.140 -22.425  0.00  0.00    +0.014 C 
ATOM     14  C   UNL     1      31.360 -10.783 -21.059  0.00  0.00    +0.013 C 
ATOM     15  C   UNL     1      31.936 -12.016 -21.348  0.00  0.00    +0.058 C 
ATOM     16  C   UNL     1      30.914  -7.138 -23.215  0.00  0.00    +0.074 C 
ENDROOT
BRANCH   9  18
ATOM     17 CL   UNL     1      34.390 -14.072 -23.202  0.00  0.00    -0.082 Cl
ATOM     18  C   UNL     1      33.586 -12.499 -25.283  0.00  0.00    +0.028 C 
ATOM     19  C   UNL     1      33.764 -13.785 -24.786  0.00  0.00    +0.059 C 
ATOM     20  C   UNL     1      33.080 -12.296 -26.561  0.00  0.00    +0.002 C 
ATOM     21  C   UNL     1      33.430 -14.883 -25.579  0.00  0.00    +0.011 C 
ATOM     22  C   UNL     1      32.746 -13.394 -27.354  0.00  0.00    +0.000 C 
ATOM     23  C   UNL     1      32.921 -14.687 -26.863  0.00  0.00    +0.001 C 
ENDBRANCH   9  18
TORSDOF 1
ENDMDL
MODEL 9
REMARK VINA RESULT:      -8.0     11.185     14.177
REMARK  Name = 5556
REMARK  1 active torsions:
REMARK  status: ('A' for Active; 'I' for Inactive)
REMARK    1  A    between atoms: C_9  and  C_18
REMARK                            x       y       z     vdW  Elec       q    Type
REMARK                         _______ _______ _______ _____ _____    ______ ____
ROOT
ATOM      1 CL   UNL     1      30.767 -22.710 -15.244  0.00  0.00    -0.082 Cl
ATOM      2  N   UNL     1      35.829 -24.626 -12.818  0.00  0.00    -0.279 N 
ATOM      3  N   UNL     1      36.648 -24.937 -15.743  0.00  0.00    -0.262 NA
ATOM      4  N   UNL     1      37.692 -25.769 -12.532  0.00  0.00    -0.131 NA
ATOM      5  N   UNL     1      37.377 -25.157 -11.343  0.00  0.00    -0.133 NA
ATOM      6  C   UNL     1      34.670 -24.094 -13.424  0.00  0.00    +0.068 C 
ATOM      7  C   UNL     1      34.575 -23.916 -14.817  0.00  0.00    +0.034 C 
ATOM      8  C   UNL     1      36.749 -25.470 -13.400  0.00  0.00    +0.172 A 
ATOM      9  C   UNL     1      35.744 -24.014 -15.754  0.00  0.00    +0.079 C 
ATOM     10  C   UNL     1      36.584 -26.008 -14.768  0.00  0.00    +0.191 C 
ATOM     11  C   UNL     1      36.252 -24.502 -11.520  0.00  0.00    +0.147 A 
ATOM     12  C   UNL     1      33.574 -23.774 -12.605  0.00  0.00    +0.019 C 
ATOM     13  C   UNL     1      33.349 -23.504 -15.369  0.00  0.00    +0.014 C 
ATOM     14  C   UNL     1      32.374 -23.341 -13.169  0.00  0.00    +0.013 C 
ATOM     15  C   UNL     1      32.257 -23.222 -14.550  0.00  0.00    +0.058 C 
ATOM     16  C   UNL     1      35.668 -23.623 -10.486  0.00  0.00    +0.074 C 
ENDROOT
BRANCH   9  18
ATOM     17 CL   UNL     1      33.696 -23.881 -18.063  0.00  0.00    -0.082 Cl
ATOM     18  C   UNL     1      35.916 -22.944 -16.781  0.00  0.00    +0.028 C 
ATOM     19  C   UNL     1      35.038 -22.814 -17.851  0.00  0.00    +0.059 C 
ATOM     20  C   UNL     1      36.987 -22.071 -16.632  0.00  0.00    +0.002 C 
ATOM     21  C   UNL     1      35.235 -21.798 -18.785  0.00  0.00    +0.011 C 
ATOM     22  C   UNL     1      37.184 -21.055 -17.567  0.00  0.00    +0.000 C 
ATOM     23  C   UNL     1      36.309 -20.919 -18.643  0.00  0.00    +0.001 C 
ENDBRANCH   9  18
TORSDOF 1
ENDMDL
