MODEL 1
REMARK VINA RESULT:      -7.7      0.000      0.000
REMARK  Name = 84704
REMARK  15 active torsions:
REMARK  status: ('A' for Active; 'I' for Inactive)
REMARK    1  A    between atoms: C_1  and  N_2
REMARK    2  A    between atoms: C_1  and  C_12
REMARK    3  A    between atoms: N_2  and  C_5
REMARK    4  A    between atoms: C_5  and  C_6
REMARK    5  A    between atoms: C_6  and  C_7
REMARK    6  A    between atoms: C_7  and  S_8
REMARK    7  A    between atoms: C_12  and  C_13
REMARK    8  A    between atoms: C_13  and  C_14
REMARK    9  A    between atoms: C_14  and  C_15
REMARK   10  A    between atoms: C_15  and  C_16
REMARK   11  A    between atoms: C_16  and  C_17
REMARK   12  A    between atoms: C_17  and  C_18
REMARK   13  A    between atoms: C_18  and  C_19
REMARK   14  A    between atoms: C_19  and  C_20
REMARK   15  A    between atoms: C_20  and  C_21
REMARK                            x       y       z     vdW  Elec       q    Type
REMARK                         _______ _______ _______ _____ _____    ______ ____
ROOT
ATOM      1  C   UNL     1      32.165 -23.443 -15.798  0.00  0.00    -0.073 C 
ENDROOT
BRANCH   1   2
ATOM      2  N   UNL     1      31.832 -24.012 -14.472  0.00  0.00    +0.387 N 
ATOM      3  C   UNL     1      33.077 -24.611 -13.804  0.00  0.00    -0.096 C 
ATOM      4  C   UNL     1      31.264 -22.931 -13.539  0.00  0.00    -0.096 C 
BRANCH   2   5
ATOM      5  C   UNL     1      30.780 -25.125 -14.603  0.00  0.00    -0.071 C 
BRANCH   5   6
ATOM      6  C   UNL     1      29.853 -24.852 -15.778  0.00  0.00    +0.004 C 
BRANCH   6   7
ATOM      7  C   UNL     1      28.571 -24.132 -15.380  0.00  0.00    +0.156 C 
BRANCH   7   8
ATOM      8  S   UNL     1      28.017 -23.054 -16.665  0.00  0.00    +0.022 S 
ATOM      9  O   UNL     1      26.716 -22.452 -15.889  0.00  0.00    -0.069 OA
ATOM     10  O   UNL     1      27.564 -23.855 -17.787  0.00  0.00    -0.069 OA
ATOM     11  O   UNL     1      28.991 -21.991 -16.835  0.00  0.00    -0.069 OA
ENDBRANCH   7   8
ENDBRANCH   6   7
ENDBRANCH   5   6
ENDBRANCH   2   5
ENDBRANCH   1   2
BRANCH   1  12
ATOM     12  C   UNL     1      33.664 -23.198 -15.916  0.00  0.00    -0.022 C 
BRANCH  12  13
ATOM     13  C   UNL     1      34.215 -23.111 -17.345  0.00  0.00    -0.002 C 
BRANCH  13  14
ATOM     14  C   UNL     1      33.250 -22.559 -18.399  0.00  0.00    -0.000 C 
BRANCH  14  15
ATOM     15  C   UNL     1      33.925 -21.640 -19.421  0.00  0.00    -0.000 C 
BRANCH  15  16
ATOM     16  C   UNL     1      32.967 -20.543 -19.894  0.00  0.00    -0.000 C 
BRANCH  16  17
ATOM     17  C   UNL     1      33.458 -19.802 -21.140  0.00  0.00    +0.000 C 
BRANCH  17  18
ATOM     18  C   UNL     1      34.885 -19.267 -21.008  0.00  0.00    +0.000 C 
BRANCH  18  19
ATOM     19  C   UNL     1      35.092 -18.019 -21.869  0.00  0.00    +0.000 C 
BRANCH  19  20
ATOM     20  C   UNL     1      35.726 -18.369 -23.215  0.00  0.00    +0.000 C 
BRANCH  20  21
ATOM     21  C   UNL     1      34.668 -18.509 -24.310  0.00  0.00    +0.000 C 
ATOM     22  C   UNL     1      34.604 -17.267 -25.184  0.00  0.00    +0.000 C 
ENDBRANCH  20  21
ENDBRANCH  19  20
ENDBRANCH  18  19
ENDBRANCH  17  18
ENDBRANCH  16  17
ENDBRANCH  15  16
ENDBRANCH  14  15
ENDBRANCH  13  14
ENDBRANCH  12  13
ENDBRANCH   1  12
TORSDOF 15
ENDMDL
MODEL 2
REMARK VINA RESULT:      -7.7      5.700      6.738
REMARK  Name = 84704
REMARK  15 active torsions:
REMARK  status: ('A' for Active; 'I' for Inactive)
REMARK    1  A    between atoms: C_1  and  N_2
REMARK    2  A    between atoms: C_1  and  C_12
REMARK    3  A    between atoms: N_2  and  C_5
REMARK    4  A    between atoms: C_5  and  C_6
REMARK    5  A    between atoms: C_6  and  C_7
REMARK    6  A    between atoms: C_7  and  S_8
REMARK    7  A    between atoms: C_12  and  C_13
REMARK    8  A    between atoms: C_13  and  C_14
REMARK    9  A    between atoms: C_14  and  C_15
REMARK   10  A    between atoms: C_15  and  C_16
REMARK   11  A    between atoms: C_16  and  C_17
REMARK   12  A    between atoms: C_17  and  C_18
REMARK   13  A    between atoms: C_18  and  C_19
REMARK   14  A    between atoms: C_19  and  C_20
REMARK   15  A    between atoms: C_20  and  C_21
REMARK                            x       y       z     vdW  Elec       q    Type
REMARK                         _______ _______ _______ _____ _____    ______ ____
ROOT
ATOM      1  C   UNL     1      36.126 -23.008 -14.361  0.00  0.00    -0.073 C 
ENDROOT
BRANCH   1   2
ATOM      2  N   UNL     1      35.614 -24.317 -13.895  0.00  0.00    +0.387 N 
ATOM      3  C   UNL     1      34.153 -24.201 -13.436  0.00  0.00    -0.096 C 
ATOM      4  C   UNL     1      35.678 -25.362 -15.020  0.00  0.00    -0.096 C 
BRANCH   2   5
ATOM      5  C   UNL     1      36.443 -24.841 -12.713  0.00  0.00    -0.071 C 
BRANCH   5   6
ATOM      6  C   UNL     1      37.837 -24.231 -12.724  0.00  0.00    +0.004 C 
BRANCH   6   7
ATOM      7  C   UNL     1      38.950 -25.269 -12.798  0.00  0.00    +0.156 C 
BRANCH   7   8
ATOM      8  S   UNL     1      39.440 -25.563 -14.469  0.00  0.00    +0.022 S 
ATOM      9  O   UNL     1      41.030 -25.789 -14.185  0.00  0.00    -0.069 OA
ATOM     10  O   UNL     1      39.270 -24.340 -15.231  0.00  0.00    -0.069 OA
ATOM     11  O   UNL     1      38.863 -26.820 -14.910  0.00  0.00    -0.069 OA
ENDBRANCH   7   8
ENDBRANCH   6   7
ENDBRANCH   5   6
ENDBRANCH   2   5
ENDBRANCH   1   2
BRANCH   1  12
ATOM     12  C   UNL     1      35.969 -22.875 -15.870  0.00  0.00    -0.022 C 
BRANCH  12  13
ATOM     13  C   UNL     1      37.011 -21.998 -16.575  0.00  0.00    -0.002 C 
BRANCH  13  14
ATOM     14  C   UNL     1      36.695 -21.624 -18.027  0.00  0.00    -0.000 C 
BRANCH  14  15
ATOM     15  C   UNL     1      35.324 -22.117 -18.498  0.00  0.00    -0.000 C 
BRANCH  15  16
ATOM     16  C   UNL     1      34.821 -21.294 -19.687  0.00  0.00    -0.000 C 
BRANCH  16  17
ATOM     17  C   UNL     1      33.294 -21.237 -19.786  0.00  0.00    +0.000 C 
BRANCH  17  18
ATOM     18  C   UNL     1      32.777 -19.987 -20.500  0.00  0.00    +0.000 C 
BRANCH  18  19
ATOM     19  C   UNL     1      33.838 -19.404 -21.436  0.00  0.00    +0.000 C 
BRANCH  19  20
ATOM     20  C   UNL     1      33.961 -17.890 -21.264  0.00  0.00    +0.000 C 
BRANCH  20  21
ATOM     21  C   UNL     1      35.421 -17.440 -21.319  0.00  0.00    +0.000 C 
ATOM     22  C   UNL     1      36.353 -18.609 -21.597  0.00  0.00    +0.000 C 
ENDBRANCH  20  21
ENDBRANCH  19  20
ENDBRANCH  18  19
ENDBRANCH  17  18
ENDBRANCH  16  17
ENDBRANCH  15  16
ENDBRANCH  14  15
ENDBRANCH  13  14
ENDBRANCH  12  13
ENDBRANCH   1  12
TORSDOF 15
ENDMDL
MODEL 3
REMARK VINA RESULT:      -7.4      5.352      6.316
REMARK  Name = 84704
REMARK  15 active torsions:
REMARK  status: ('A' for Active; 'I' for Inactive)
REMARK    1  A    between atoms: C_1  and  N_2
REMARK    2  A    between atoms: C_1  and  C_12
REMARK    3  A    between atoms: N_2  and  C_5
REMARK    4  A    between atoms: C_5  and  C_6
REMARK    5  A    between atoms: C_6  and  C_7
REMARK    6  A    between atoms: C_7  and  S_8
REMARK    7  A    between atoms: C_12  and  C_13
REMARK    8  A    between atoms: C_13  and  C_14
REMARK    9  A    between atoms: C_14  and  C_15
REMARK   10  A    between atoms: C_15  and  C_16
REMARK   11  A    between atoms: C_16  and  C_17
REMARK   12  A    between atoms: C_17  and  C_18
REMARK   13  A    between atoms: C_18  and  C_19
REMARK   14  A    between atoms: C_19  and  C_20
REMARK   15  A    between atoms: C_20  and  C_21
REMARK                            x       y       z     vdW  Elec       q    Type
REMARK                         _______ _______ _______ _____ _____    ______ ____
ROOT
ATOM      1  C   UNL     1      35.194 -23.266 -15.664  0.00  0.00    -0.073 C 
ENDROOT
BRANCH   1   2
ATOM      2  N   UNL     1      35.261 -24.247 -14.557  0.00  0.00    +0.387 N 
ATOM      3  C   UNL     1      33.899 -24.381 -13.860  0.00  0.00    -0.096 C 
ATOM      4  C   UNL     1      35.668 -25.634 -15.077  0.00  0.00    -0.096 C 
BRANCH   2   5
ATOM      5  C   UNL     1      36.293 -23.814 -13.504  0.00  0.00    -0.071 C 
BRANCH   5   6
ATOM      6  C   UNL     1      37.090 -25.013 -13.010  0.00  0.00    +0.004 C 
BRANCH   6   7
ATOM      7  C   UNL     1      38.590 -24.757 -12.949  0.00  0.00    +0.156 C 
BRANCH   7   8
ATOM      8  S   UNL     1      39.377 -25.202 -14.466  0.00  0.00    +0.022 S 
ATOM      9  O   UNL     1      40.918 -25.011 -13.968  0.00  0.00    -0.069 OA
ATOM     10  O   UNL     1      39.080 -24.191 -15.464  0.00  0.00    -0.069 OA
ATOM     11  O   UNL     1      39.141 -26.612 -14.718  0.00  0.00    -0.069 OA
ENDBRANCH   7   8
ENDBRANCH   6   7
ENDBRANCH   5   6
ENDBRANCH   2   5
ENDBRANCH   1   2
BRANCH   1  12
ATOM     12  C   UNL     1      33.822 -23.296 -16.326  0.00  0.00    -0.022 C 
BRANCH  12  13
ATOM     13  C   UNL     1      33.796 -22.958 -17.822  0.00  0.00    -0.002 C 
BRANCH  13  14
ATOM     14  C   UNL     1      35.021 -22.211 -18.359  0.00  0.00    -0.000 C 
BRANCH  14  15
ATOM     15  C   UNL     1      34.773 -21.521 -19.703  0.00  0.00    -0.000 C 
BRANCH  15  16
ATOM     16  C   UNL     1      33.300 -21.129 -19.857  0.00  0.00    -0.000 C 
BRANCH  16  17
ATOM     17  C   UNL     1      33.096 -19.822 -20.629  0.00  0.00    +0.000 C 
BRANCH  17  18
ATOM     18  C   UNL     1      34.299 -19.427 -21.486  0.00  0.00    +0.000 C 
BRANCH  18  19
ATOM     19  C   UNL     1      34.629 -17.941 -21.327  0.00  0.00    +0.000 C 
BRANCH  19  20
ATOM     20  C   UNL     1      34.979 -17.301 -22.671  0.00  0.00    +0.000 C 
BRANCH  20  21
ATOM     21  C   UNL     1      34.975 -18.335 -23.797  0.00  0.00    +0.000 C 
ATOM     22  C   UNL     1      34.559 -17.713 -25.121  0.00  0.00    +0.000 C 
ENDBRANCH  20  21
ENDBRANCH  19  20
ENDBRANCH  18  19
ENDBRANCH  17  18
ENDBRANCH  16  17
ENDBRANCH  15  16
ENDBRANCH  14  15
ENDBRANCH  13  14
ENDBRANCH  12  13
ENDBRANCH   1  12
TORSDOF 15
ENDMDL
MODEL 4
REMARK VINA RESULT:      -7.4      5.688      6.573
REMARK  Name = 84704
REMARK  15 active torsions:
REMARK  status: ('A' for Active; 'I' for Inactive)
REMARK    1  A    between atoms: C_1  and  N_2
REMARK    2  A    between atoms: C_1  and  C_12
REMARK    3  A    between atoms: N_2  and  C_5
REMARK    4  A    between atoms: C_5  and  C_6
REMARK    5  A    between atoms: C_6  and  C_7
REMARK    6  A    between atoms: C_7  and  S_8
REMARK    7  A    between atoms: C_12  and  C_13
REMARK    8  A    between atoms: C_13  and  C_14
REMARK    9  A    between atoms: C_14  and  C_15
REMARK   10  A    between atoms: C_15  and  C_16
REMARK   11  A    between atoms: C_16  and  C_17
REMARK   12  A    between atoms: C_17  and  C_18
REMARK   13  A    between atoms: C_18  and  C_19
REMARK   14  A    between atoms: C_19  and  C_20
REMARK   15  A    between atoms: C_20  and  C_21
REMARK                            x       y       z     vdW  Elec       q    Type
REMARK                         _______ _______ _______ _____ _____    ______ ____
ROOT
ATOM      1  C   UNL     1      35.619 -22.711 -15.179  0.00  0.00    -0.073 C 
ENDROOT
BRANCH   1   2
ATOM      2  N   UNL     1      35.596 -23.932 -14.341  0.00  0.00    +0.387 N 
ATOM      3  C   UNL     1      34.281 -24.033 -13.554  0.00  0.00    -0.096 C 
ATOM      4  C   UNL     1      35.729 -25.193 -15.208  0.00  0.00    -0.096 C 
BRANCH   2   5
ATOM      5  C   UNL     1      36.755 -23.926 -13.332  0.00  0.00    -0.071 C 
BRANCH   5   6
ATOM      6  C   UNL     1      37.309 -25.330 -13.143  0.00  0.00    +0.004 C 
BRANCH   6   7
ATOM      7  C   UNL     1      38.806 -25.356 -12.863  0.00  0.00    +0.156 C 
BRANCH   7   8
ATOM      8  S   UNL     1      39.724 -25.730 -14.324  0.00  0.00    +0.022 S 
ATOM      9  O   UNL     1      38.716 -26.864 -14.922  0.00  0.00    -0.069 OA
ATOM     10  O   UNL     1      40.972 -26.366 -13.945  0.00  0.00    -0.069 OA
ATOM     11  O   UNL     1      39.696 -24.574 -15.202  0.00  0.00    -0.069 OA
ENDBRANCH   7   8
ENDBRANCH   6   7
ENDBRANCH   5   6
ENDBRANCH   2   5
ENDBRANCH   1   2
BRANCH   1  12
ATOM     12  C   UNL     1      36.980 -22.539 -15.841  0.00  0.00    -0.022 C 
BRANCH  12  13
ATOM     13  C   UNL     1      36.965 -21.921 -17.245  0.00  0.00    -0.002 C 
BRANCH  13  14
ATOM     14  C   UNL     1      35.639 -22.023 -18.004  0.00  0.00    -0.000 C 
BRANCH  14  15
ATOM     15  C   UNL     1      35.723 -21.516 -19.447  0.00  0.00    -0.000 C 
BRANCH  15  16
ATOM     16  C   UNL     1      34.378 -20.951 -19.912  0.00  0.00    -0.000 C 
BRANCH  16  17
ATOM     17  C   UNL     1      34.513 -19.803 -20.916  0.00  0.00    +0.000 C 
BRANCH  17  18
ATOM     18  C   UNL     1      35.939 -19.260 -21.030  0.00  0.00    +0.000 C 
BRANCH  18  19
ATOM     19  C   UNL     1      36.074 -18.304 -22.218  0.00  0.00    +0.000 C 
BRANCH  19  20
ATOM     20  C   UNL     1      34.757 -17.586 -22.508  0.00  0.00    +0.000 C 
BRANCH  20  21
ATOM     21  C   UNL     1      34.817 -16.826 -23.834  0.00  0.00    +0.000 C 
ATOM     22  C   UNL     1      34.609 -17.756 -25.018  0.00  0.00    +0.000 C 
ENDBRANCH  20  21
ENDBRANCH  19  20
ENDBRANCH  18  19
ENDBRANCH  17  18
ENDBRANCH  16  17
ENDBRANCH  15  16
ENDBRANCH  14  15
ENDBRANCH  13  14
ENDBRANCH  12  13
ENDBRANCH   1  12
TORSDOF 15
ENDMDL
MODEL 5
REMARK VINA RESULT:      -7.4      1.387      2.096
REMARK  Name = 84704
REMARK  15 active torsions:
REMARK  status: ('A' for Active; 'I' for Inactive)
REMARK    1  A    between atoms: C_1  and  N_2
REMARK    2  A    between atoms: C_1  and  C_12
REMARK    3  A    between atoms: N_2  and  C_5
REMARK    4  A    between atoms: C_5  and  C_6
REMARK    5  A    between atoms: C_6  and  C_7
REMARK    6  A    between atoms: C_7  and  S_8
REMARK    7  A    between atoms: C_12  and  C_13
REMARK    8  A    between atoms: C_13  and  C_14
REMARK    9  A    between atoms: C_14  and  C_15
REMARK   10  A    between atoms: C_15  and  C_16
REMARK   11  A    between atoms: C_16  and  C_17
REMARK   12  A    between atoms: C_17  and  C_18
REMARK   13  A    between atoms: C_18  and  C_19
REMARK   14  A    between atoms: C_19  and  C_20
REMARK   15  A    between atoms: C_20  and  C_21
REMARK                            x       y       z     vdW  Elec       q    Type
REMARK                         _______ _______ _______ _____ _____    ______ ____
ROOT
ATOM      1  C   UNL     1      32.791 -23.098 -15.507  0.00  0.00    -0.073 C 
ENDROOT
BRANCH   1   2
ATOM      2  N   UNL     1      31.839 -23.860 -14.667  0.00  0.00    +0.387 N 
ATOM      3  C   UNL     1      32.579 -24.856 -13.763  0.00  0.00    -0.096 C 
ATOM      4  C   UNL     1      31.025 -22.915 -13.768  0.00  0.00    -0.096 C 
BRANCH   2   5
ATOM      5  C   UNL     1      30.852 -24.651 -15.538  0.00  0.00    -0.071 C 
BRANCH   5   6
ATOM      6  C   UNL     1      29.416 -24.348 -15.134  0.00  0.00    +0.004 C 
BRANCH   6   7
ATOM      7  C   UNL     1      28.440 -24.381 -16.303  0.00  0.00    +0.156 C 
BRANCH   7   8
ATOM      8  S   UNL     1      27.952 -22.751 -16.774  0.00  0.00    +0.022 S 
ATOM      9  O   UNL     1      29.433 -22.190 -17.160  0.00  0.00    -0.069 OA
ATOM     10  O   UNL     1      27.476 -22.044 -15.599  0.00  0.00    -0.069 OA
ATOM     11  O   UNL     1      27.155 -22.834 -17.985  0.00  0.00    -0.069 OA
ENDBRANCH   7   8
ENDBRANCH   6   7
ENDBRANCH   5   6
ENDBRANCH   2   5
ENDBRANCH   1   2
BRANCH   1  12
ATOM     12  C   UNL     1      32.724 -23.565 -16.955  0.00  0.00    -0.022 C 
BRANCH  12  13
ATOM     13  C   UNL     1      32.888 -22.471 -18.017  0.00  0.00    -0.002 C 
BRANCH  13  14
ATOM     14  C   UNL     1      34.038 -22.672 -19.009  0.00  0.00    -0.000 C 
BRANCH  14  15
ATOM     15  C   UNL     1      34.524 -21.369 -19.650  0.00  0.00    -0.000 C 
BRANCH  15  16
ATOM     16  C   UNL     1      33.344 -20.501 -20.096  0.00  0.00    -0.000 C 
BRANCH  16  17
ATOM     17  C   UNL     1      33.645 -19.657 -21.338  0.00  0.00    +0.000 C 
BRANCH  17  18
ATOM     18  C   UNL     1      34.881 -18.769 -21.187  0.00  0.00    +0.000 C 
BRANCH  18  19
ATOM     19  C   UNL     1      34.626 -17.366 -21.742  0.00  0.00    +0.000 C 
BRANCH  19  20
ATOM     20  C   UNL     1      34.807 -16.299 -20.662  0.00  0.00    +0.000 C 
BRANCH  20  21
ATOM     21  C   UNL     1      34.124 -14.988 -21.054  0.00  0.00    +0.000 C 
ATOM     22  C   UNL     1      32.620 -15.060 -20.842  0.00  0.00    +0.000 C 
ENDBRANCH  20  21
ENDBRANCH  19  20
ENDBRANCH  18  19
ENDBRANCH  17  18
ENDBRANCH  16  17
ENDBRANCH  15  16
ENDBRANCH  14  15
ENDBRANCH  13  14
ENDBRANCH  12  13
ENDBRANCH   1  12
TORSDOF 15
ENDMDL
MODEL 6
REMARK VINA RESULT:      -7.3      5.107      8.179
REMARK  Name = 84704
REMARK  15 active torsions:
REMARK  status: ('A' for Active; 'I' for Inactive)
REMARK    1  A    between atoms: C_1  and  N_2
REMARK    2  A    between atoms: C_1  and  C_12
REMARK    3  A    between atoms: N_2  and  C_5
REMARK    4  A    between atoms: C_5  and  C_6
REMARK    5  A    between atoms: C_6  and  C_7
REMARK    6  A    between atoms: C_7  and  S_8
REMARK    7  A    between atoms: C_12  and  C_13
REMARK    8  A    between atoms: C_13  and  C_14
REMARK    9  A    between atoms: C_14  and  C_15
REMARK   10  A    between atoms: C_15  and  C_16
REMARK   11  A    between atoms: C_16  and  C_17
REMARK   12  A    between atoms: C_17  and  C_18
REMARK   13  A    between atoms: C_18  and  C_19
REMARK   14  A    between atoms: C_19  and  C_20
REMARK   15  A    between atoms: C_20  and  C_21
REMARK                            x       y       z     vdW  Elec       q    Type
REMARK                         _______ _______ _______ _____ _____    ______ ____
ROOT
ATOM      1  C   UNL     1      35.781 -18.656 -22.997  0.00  0.00    -0.073 C 
ENDROOT
BRANCH   1   2
ATOM      2  N   UNL     1      35.199 -18.749 -21.638  0.00  0.00    +0.387 N 
ATOM      3  C   UNL     1      35.107 -17.362 -20.985  0.00  0.00    -0.096 C 
ATOM      4  C   UNL     1      33.783 -19.345 -21.689  0.00  0.00    -0.096 C 
BRANCH   2   5
ATOM      5  C   UNL     1      36.058 -19.645 -20.733  0.00  0.00    -0.071 C 
BRANCH   5   6
ATOM      6  C   UNL     1      35.424 -21.019 -20.581  0.00  0.00    +0.004 C 
BRANCH   6   7
ATOM      7  C   UNL     1      35.448 -21.540 -19.150  0.00  0.00    +0.156 C 
BRANCH   7   8
ATOM      8  S   UNL     1      34.021 -22.521 -18.802  0.00  0.00    +0.022 S 
ATOM      9  O   UNL     1      34.291 -23.686 -19.911  0.00  0.00    -0.069 OA
ATOM     10  O   UNL     1      32.835 -21.778 -19.183  0.00  0.00    -0.069 OA
ATOM     11  O   UNL     1      34.164 -23.098 -17.477  0.00  0.00    -0.069 OA
ENDBRANCH   7   8
ENDBRANCH   6   7
ENDBRANCH   5   6
ENDBRANCH   2   5
ENDBRANCH   1   2
BRANCH   1  12
ATOM     12  C   UNL     1      34.729 -18.962 -24.054  0.00  0.00    -0.022 C 
BRANCH  12  13
ATOM     13  C   UNL     1      34.506 -17.870 -25.109  0.00  0.00    -0.002 C 
BRANCH  13  14
ATOM     14  C   UNL     1      34.632 -16.427 -24.611  0.00  0.00    -0.000 C 
BRANCH  14  15
ATOM     15  C   UNL     1      33.500 -15.516 -25.093  0.00  0.00    -0.000 C 
BRANCH  15  16
ATOM     16  C   UNL     1      33.650 -14.102 -24.524  0.00  0.00    -0.000 C 
BRANCH  16  17
ATOM     17  C   UNL     1      33.904 -14.076 -23.015  0.00  0.00    +0.000 C 
BRANCH  17  18
ATOM     18  C   UNL     1      32.701 -14.530 -22.187  0.00  0.00    +0.000 C 
BRANCH  18  19
ATOM     19  C   UNL     1      32.313 -13.475 -21.148  0.00  0.00    +0.000 C 
BRANCH  19  20
ATOM     20  C   UNL     1      31.872 -12.171 -21.815  0.00  0.00    +0.000 C 
BRANCH  20  21
ATOM     21  C   UNL     1      30.917 -11.382 -20.919  0.00  0.00    +0.000 C 
ATOM     22  C   UNL     1      31.510 -11.158 -19.537  0.00  0.00    +0.000 C 
ENDBRANCH  20  21
ENDBRANCH  19  20
ENDBRANCH  18  19
ENDBRANCH  17  18
ENDBRANCH  16  17
ENDBRANCH  15  16
ENDBRANCH  14  15
ENDBRANCH  13  14
ENDBRANCH  12  13
ENDBRANCH   1  12
TORSDOF 15
ENDMDL
MODEL 7
REMARK VINA RESULT:      -7.3      6.522      9.160
REMARK  Name = 84704
REMARK  15 active torsions:
REMARK  status: ('A' for Active; 'I' for Inactive)
REMARK    1  A    between atoms: C_1  and  N_2
REMARK    2  A    between atoms: C_1  and  C_12
REMARK    3  A    between atoms: N_2  and  C_5
REMARK    4  A    between atoms: C_5  and  C_6
REMARK    5  A    between atoms: C_6  and  C_7
REMARK    6  A    between atoms: C_7  and  S_8
REMARK    7  A    between atoms: C_12  and  C_13
REMARK    8  A    between atoms: C_13  and  C_14
REMARK    9  A    between atoms: C_14  and  C_15
REMARK   10  A    between atoms: C_15  and  C_16
REMARK   11  A    between atoms: C_16  and  C_17
REMARK   12  A    between atoms: C_17  and  C_18
REMARK   13  A    between atoms: C_18  and  C_19
REMARK   14  A    between atoms: C_19  and  C_20
REMARK   15  A    between atoms: C_20  and  C_21
REMARK                            x       y       z     vdW  Elec       q    Type
REMARK                         _______ _______ _______ _____ _____    ______ ____
ROOT
ATOM      1  C   UNL     1      34.660 -17.025 -21.172  0.00  0.00    -0.073 C 
ENDROOT
BRANCH   1   2
ATOM      2  N   UNL     1      34.955 -18.396 -21.648  0.00  0.00    +0.387 N 
ATOM      3  C   UNL     1      35.057 -18.435 -23.179  0.00  0.00    -0.096 C 
ATOM      4  C   UNL     1      36.286 -18.902 -21.069  0.00  0.00    -0.096 C 
BRANCH   2   5
ATOM      5  C   UNL     1      33.850 -19.374 -21.220  0.00  0.00    -0.071 C 
BRANCH   5   6
ATOM      6  C   UNL     1      34.424 -20.487 -20.356  0.00  0.00    +0.004 C 
BRANCH   6   7
ATOM      7  C   UNL     1      33.357 -21.318 -19.654  0.00  0.00    +0.156 C 
BRANCH   7   8
ATOM      8  S   UNL     1      34.068 -22.712 -18.835  0.00  0.00    +0.022 S 
ATOM      9  O   UNL     1      32.950 -22.856 -17.657  0.00  0.00    -0.069 OA
ATOM     10  O   UNL     1      35.328 -22.313 -18.237  0.00  0.00    -0.069 OA
ATOM     11  O   UNL     1      33.974 -23.866 -19.710  0.00  0.00    -0.069 OA
ENDBRANCH   7   8
ENDBRANCH   6   7
ENDBRANCH   5   6
ENDBRANCH   2   5
ENDBRANCH   1   2
BRANCH   1  12
ATOM     12  C   UNL     1      34.699 -16.035 -22.330  0.00  0.00    -0.022 C 
BRANCH  12  13
ATOM     13  C   UNL     1      34.203 -14.619 -22.013  0.00  0.00    -0.002 C 
BRANCH  13  14
ATOM     14  C   UNL     1      32.704 -14.486 -21.726  0.00  0.00    -0.000 C 
BRANCH  14  15
ATOM     15  C   UNL     1      32.182 -13.053 -21.865  0.00  0.00    -0.000 C 
BRANCH  15  16
ATOM     16  C   UNL     1      31.899 -12.434 -20.493  0.00  0.00    -0.000 C 
BRANCH  16  17
ATOM     17  C   UNL     1      31.102 -11.128 -20.567  0.00  0.00    +0.000 C 
BRANCH  17  18
ATOM     18  C   UNL     1      31.350 -10.197 -19.379  0.00  0.00    +0.000 C 
BRANCH  18  19
ATOM     19  C   UNL     1      32.086  -8.927 -19.814  0.00  0.00    +0.000 C 
BRANCH  19  20
ATOM     20  C   UNL     1      32.282  -8.888 -21.330  0.00  0.00    +0.000 C 
BRANCH  20  21
ATOM     21  C   UNL     1      31.729  -7.595 -21.930  0.00  0.00    +0.000 C 
ATOM     22  C   UNL     1      31.976  -6.407 -21.014  0.00  0.00    +0.000 C 
ENDBRANCH  20  21
ENDBRANCH  19  20
ENDBRANCH  18  19
ENDBRANCH  17  18
ENDBRANCH  16  17
ENDBRANCH  15  16
ENDBRANCH  14  15
ENDBRANCH  13  14
ENDBRANCH  12  13
ENDBRANCH   1  12
TORSDOF 15
ENDMDL
MODEL 8
REMARK VINA RESULT:      -7.2      2.728      3.516
REMARK  Name = 84704
REMARK  15 active torsions:
REMARK  status: ('A' for Active; 'I' for Inactive)
REMARK    1  A    between atoms: C_1  and  N_2
REMARK    2  A    between atoms: C_1  and  C_12
REMARK    3  A    between atoms: N_2  and  C_5
REMARK    4  A    between atoms: C_5  and  C_6
REMARK    5  A    between atoms: C_6  and  C_7
REMARK    6  A    between atoms: C_7  and  S_8
REMARK    7  A    between atoms: C_12  and  C_13
REMARK    8  A    between atoms: C_13  and  C_14
REMARK    9  A    between atoms: C_14  and  C_15
REMARK   10  A    between atoms: C_15  and  C_16
REMARK   11  A    between atoms: C_16  and  C_17
REMARK   12  A    between atoms: C_17  and  C_18
REMARK   13  A    between atoms: C_18  and  C_19
REMARK   14  A    between atoms: C_19  and  C_20
REMARK   15  A    between atoms: C_20  and  C_21
REMARK                            x       y       z     vdW  Elec       q    Type
REMARK                         _______ _______ _______ _____ _____    ______ ____
ROOT
ATOM      1  C   UNL     1      37.153 -23.310 -15.087  0.00  0.00    -0.073 C 
ENDROOT
BRANCH   1   2
ATOM      2  N   UNL     1      36.266 -24.313 -14.455  0.00  0.00    +0.387 N 
ATOM      3  C   UNL     1      36.942 -25.691 -14.407  0.00  0.00    -0.096 C 
ATOM      4  C   UNL     1      35.917 -23.905 -13.015  0.00  0.00    -0.096 C 
BRANCH   2   5
ATOM      5  C   UNL     1      34.952 -24.455 -15.238  0.00  0.00    -0.071 C 
BRANCH   5   6
ATOM      6  C   UNL     1      33.755 -24.336 -14.306  0.00  0.00    +0.004 C 
BRANCH   6   7
ATOM      7  C   UNL     1      32.628 -23.485 -14.876  0.00  0.00    +0.156 C 
BRANCH   7   8
ATOM      8  S   UNL     1      31.084 -23.871 -14.109  0.00  0.00    +0.022 S 
ATOM      9  O   UNL     1      31.143 -25.487 -14.319  0.00  0.00    -0.069 OA
ATOM     10  O   UNL     1      30.009 -23.332 -14.920  0.00  0.00    -0.069 OA
ATOM     11  O   UNL     1      31.184 -23.582 -12.690  0.00  0.00    -0.069 OA
ENDBRANCH   7   8
ENDBRANCH   6   7
ENDBRANCH   5   6
ENDBRANCH   2   5
ENDBRANCH   1   2
BRANCH   1  12
ATOM     12  C   UNL     1      36.352 -22.375 -15.984  0.00  0.00    -0.022 C 
BRANCH  12  13
ATOM     13  C   UNL     1      37.123 -21.749 -17.153  0.00  0.00    -0.002 C 
BRANCH  13  14
ATOM     14  C   UNL     1      36.379 -21.699 -18.491  0.00  0.00    -0.000 C 
BRANCH  14  15
ATOM     15  C   UNL     1      34.918 -22.147 -18.393  0.00  0.00    -0.000 C 
BRANCH  15  16
ATOM     16  C   UNL     1      34.194 -21.964 -19.730  0.00  0.00    -0.000 C 
BRANCH  16  17
ATOM     17  C   UNL     1      33.115 -20.878 -19.695  0.00  0.00    +0.000 C 
BRANCH  17  18
ATOM     18  C   UNL     1      33.255 -19.845 -20.814  0.00  0.00    +0.000 C 
BRANCH  18  19
ATOM     19  C   UNL     1      34.708 -19.721 -21.277  0.00  0.00    +0.000 C 
BRANCH  19  20
ATOM     20  C   UNL     1      34.877 -18.585 -22.286  0.00  0.00    +0.000 C 
BRANCH  20  21
ATOM     21  C   UNL     1      34.850 -19.108 -23.723  0.00  0.00    +0.000 C 
ATOM     22  C   UNL     1      34.650 -17.979 -24.721  0.00  0.00    +0.000 C 
ENDBRANCH  20  21
ENDBRANCH  19  20
ENDBRANCH  18  19
ENDBRANCH  17  18
ENDBRANCH  16  17
ENDBRANCH  15  16
ENDBRANCH  14  15
ENDBRANCH  13  14
ENDBRANCH  12  13
ENDBRANCH   1  12
TORSDOF 15
ENDMDL
MODEL 9
REMARK VINA RESULT:      -7.2      5.983      9.166
REMARK  Name = 84704
REMARK  15 active torsions:
REMARK  status: ('A' for Active; 'I' for Inactive)
REMARK    1  A    between atoms: C_1  and  N_2
REMARK    2  A    between atoms: C_1  and  C_12
REMARK    3  A    between atoms: N_2  and  C_5
REMARK    4  A    between atoms: C_5  and  C_6
REMARK    5  A    between atoms: C_6  and  C_7
REMARK    6  A    between atoms: C_7  and  S_8
REMARK    7  A    between atoms: C_12  and  C_13
REMARK    8  A    between atoms: C_13  and  C_14
REMARK    9  A    between atoms: C_14  and  C_15
REMARK   10  A    between atoms: C_15  and  C_16
REMARK   11  A    between atoms: C_16  and  C_17
REMARK   12  A    between atoms: C_17  and  C_18
REMARK   13  A    between atoms: C_18  and  C_19
REMARK   14  A    between atoms: C_19  and  C_20
REMARK   15  A    between atoms: C_20  and  C_21
REMARK                            x       y       z     vdW  Elec       q    Type
REMARK                         _______ _______ _______ _____ _____    ______ ____
ROOT
ATOM      1  C   UNL     1      34.885 -17.036 -21.311  0.00  0.00    -0.073 C 
ENDROOT
BRANCH   1   2
ATOM      2  N   UNL     1      35.195 -18.415 -21.751  0.00  0.00    +0.387 N 
ATOM      3  C   UNL     1      35.417 -18.470 -23.270  0.00  0.00    -0.096 C 
ATOM      4  C   UNL     1      36.468 -18.936 -21.065  0.00  0.00    -0.096 C 
BRANCH   2   5
ATOM      5  C   UNL     1      34.045 -19.373 -21.404  0.00  0.00    -0.071 C 
BRANCH   5   6
ATOM      6  C   UNL     1      34.493 -20.398 -20.372  0.00  0.00    +0.004 C 
BRANCH   6   7
ATOM      7  C   UNL     1      33.335 -21.138 -19.715  0.00  0.00    +0.156 C 
BRANCH   7   8
ATOM      8  S   UNL     1      33.895 -22.595 -18.888  0.00  0.00    +0.022 S 
ATOM      9  O   UNL     1      32.593 -22.805 -17.929  0.00  0.00    -0.069 OA
ATOM     10  O   UNL     1      35.036 -22.255 -18.058  0.00  0.00    -0.069 OA
ATOM     11  O   UNL     1      33.949 -23.684 -19.846  0.00  0.00    -0.069 OA
ENDBRANCH   7   8
ENDBRANCH   6   7
ENDBRANCH   5   6
ENDBRANCH   2   5
ENDBRANCH   1   2
BRANCH   1  12
ATOM     12  C   UNL     1      34.484 -16.170 -22.499  0.00  0.00    -0.022 C 
BRANCH  12  13
ATOM     13  C   UNL     1      34.380 -14.665 -22.223  0.00  0.00    -0.002 C 
BRANCH  13  14
ATOM     14  C   UNL     1      32.960 -14.098 -22.144  0.00  0.00    -0.000 C 
BRANCH  14  15
ATOM     15  C   UNL     1      32.746 -12.868 -23.031  0.00  0.00    -0.000 C 
BRANCH  15  16
ATOM     16  C   UNL     1      33.822 -12.776 -24.116  0.00  0.00    -0.000 C 
BRANCH  16  17
ATOM     17  C   UNL     1      33.862 -11.418 -24.821  0.00  0.00    +0.000 C 
BRANCH  17  18
ATOM     18  C   UNL     1      33.885 -10.232 -23.856  0.00  0.00    +0.000 C 
BRANCH  18  19
ATOM     19  C   UNL     1      34.806  -9.120 -24.364  0.00  0.00    +0.000 C 
BRANCH  19  20
ATOM     20  C   UNL     1      34.802  -7.918 -23.420  0.00  0.00    +0.000 C 
BRANCH  20  21
ATOM     21  C   UNL     1      33.416  -7.277 -23.340  0.00  0.00    +0.000 C 
ATOM     22  C   UNL     1      33.159  -6.358 -24.523  0.00  0.00    +0.000 C 
ENDBRANCH  20  21
ENDBRANCH  19  20
ENDBRANCH  18  19
ENDBRANCH  17  18
ENDBRANCH  16  17
ENDBRANCH  15  16
ENDBRANCH  14  15
ENDBRANCH  13  14
ENDBRANCH  12  13
ENDBRANCH   1  12
TORSDOF 15
ENDMDL
