MODEL 1
REMARK VINA RESULT:      -7.7      0.000      0.000
REMARK  Name = 5288600
REMARK  4 active torsions:
REMARK  status: ('A' for Active; 'I' for Inactive)
REMARK    1  A    between atoms: C_1  and  C_12
REMARK    2  A    between atoms: C_2  and  O_19
REMARK    3  A    between atoms: C_3  and  O_21
REMARK    4  A    between atoms: C_6  and  O_23
REMARK                            x       y       z     vdW  Elec       q    Type
REMARK                         _______ _______ _______ _____ _____    ______ ____
ROOT
ATOM      1  C   UNL     1      35.278 -16.768 -23.097  0.00  0.00    +0.068 C 
ATOM      2  C   UNL     1      34.809 -17.115 -24.378  0.00  0.00    +0.145 C 
ATOM      3  C   UNL     1      34.770 -15.599 -22.498  0.00  0.00    +0.145 C 
ATOM      4  C   UNL     1      33.867 -16.324 -25.036  0.00  0.00    +0.074 C 
ATOM      5  C   UNL     1      33.829 -14.808 -23.155  0.00  0.00    +0.074 C 
ATOM      6  C   UNL     1      33.377 -15.170 -24.425  0.00  0.00    +0.145 C 
ENDROOT
BRANCH   1  12
ATOM      7  O   UNL     1      38.196 -19.301 -20.994  0.00  0.00    -0.270 OA
ATOM      8  N   UNL     1      36.248 -20.342 -20.159  0.00  0.00    -0.280 N 
ATOM      9  C   UNL     1      35.948 -18.589 -21.598  0.00  0.00    +0.055 C 
ATOM     10  C   UNL     1      34.633 -19.084 -21.205  0.00  0.00    +0.018 C 
ATOM     11  C   UNL     1      34.872 -20.148 -20.331  0.00  0.00    +0.051 C 
ATOM     12  C   UNL     1      36.246 -17.581 -22.420  0.00  0.00    +0.011 C 
ATOM     13  C   UNL     1      36.988 -19.421 -20.906  0.00  0.00    +0.250 C 
ATOM     14  C   UNL     1      33.341 -18.710 -21.524  0.00  0.00    +0.001 C 
ATOM     15  C   UNL     1      33.850 -20.870 -19.749  0.00  0.00    +0.015 C 
ATOM     16  C   UNL     1      32.291 -19.429 -20.945  0.00  0.00    +0.000 C 
ATOM     17  C   UNL     1      32.543 -20.499 -20.067  0.00  0.00    +0.001 C 
ATOM     18  H   UNL     1      36.643 -21.038 -19.584  0.00  0.00    +0.155 HD
ENDBRANCH   1  12
BRANCH   2  19
ATOM     19  O   UNL     1      35.270 -18.238 -25.000  0.00  0.00    -0.471 OA
ATOM     20  C   UNL     1      34.418 -19.380 -24.991  0.00  0.00    +0.252 C 
ENDBRANCH   2  19
BRANCH   3  21
ATOM     21  O   UNL     1      35.192 -15.220 -21.258  0.00  0.00    -0.471 OA
ATOM     22  C   UNL     1      34.242 -15.296 -20.198  0.00  0.00    +0.252 C 
ENDBRANCH   3  21
BRANCH   6  23
ATOM     23  O   UNL     1      32.458 -14.397 -25.066  0.00  0.00    -0.471 OA
ATOM     24  C   UNL     1      32.713 -14.090 -26.436  0.00  0.00    +0.252 C 
ENDBRANCH   6  23
TORSDOF 4
ENDMDL
MODEL 2
REMARK VINA RESULT:      -7.7      0.039      2.545
REMARK  Name = 5288600
REMARK  4 active torsions:
REMARK  status: ('A' for Active; 'I' for Inactive)
REMARK    1  A    between atoms: C_1  and  C_12
REMARK    2  A    between atoms: C_2  and  O_19
REMARK    3  A    between atoms: C_3  and  O_21
REMARK    4  A    between atoms: C_6  and  O_23
REMARK                            x       y       z     vdW  Elec       q    Type
REMARK                         _______ _______ _______ _____ _____    ______ ____
ROOT
ATOM      1  C   UNL     1      35.276 -16.745 -23.109  0.00  0.00    +0.068 C 
ATOM      2  C   UNL     1      34.787 -15.566 -22.517  0.00  0.00    +0.145 C 
ATOM      3  C   UNL     1      34.795 -17.097 -24.385  0.00  0.00    +0.145 C 
ATOM      4  C   UNL     1      33.850 -14.767 -23.175  0.00  0.00    +0.074 C 
ATOM      5  C   UNL     1      33.859 -16.301 -25.043  0.00  0.00    +0.074 C 
ATOM      6  C   UNL     1      33.386 -15.135 -24.438  0.00  0.00    +0.145 C 
ENDROOT
BRANCH   1  12
ATOM      7  O   UNL     1      38.178 -19.297 -21.008  0.00  0.00    -0.270 OA
ATOM      8  N   UNL     1      36.224 -20.330 -20.177  0.00  0.00    -0.280 N 
ATOM      9  C   UNL     1      35.935 -18.573 -21.613  0.00  0.00    +0.055 C 
ATOM     10  C   UNL     1      34.617 -19.062 -21.223  0.00  0.00    +0.018 C 
ATOM     11  C   UNL     1      34.850 -20.129 -20.350  0.00  0.00    +0.051 C 
ATOM     12  C   UNL     1      36.238 -17.565 -22.433  0.00  0.00    +0.011 C 
ATOM     13  C   UNL     1      36.970 -19.412 -20.921  0.00  0.00    +0.250 C 
ATOM     14  C   UNL     1      33.327 -18.680 -21.542  0.00  0.00    +0.001 C 
ATOM     15  C   UNL     1      33.823 -20.847 -19.771  0.00  0.00    +0.015 C 
ATOM     16  C   UNL     1      32.272 -19.396 -20.966  0.00  0.00    +0.000 C 
ATOM     17  C   UNL     1      32.518 -20.469 -20.090  0.00  0.00    +0.001 C 
ATOM     18  H   UNL     1      36.615 -21.029 -19.603  0.00  0.00    +0.155 HD
ENDBRANCH   1  12
BRANCH   2  19
ATOM     19  O   UNL     1      35.222 -15.181 -21.283  0.00  0.00    -0.471 OA
ATOM     20  C   UNL     1      34.282 -15.249 -20.214  0.00  0.00    +0.252 C 
ENDBRANCH   2  19
BRANCH   3  21
ATOM     21  O   UNL     1      35.239 -18.230 -25.001  0.00  0.00    -0.471 OA
ATOM     22  C   UNL     1      34.367 -19.358 -24.987  0.00  0.00    +0.252 C 
ENDBRANCH   3  21
BRANCH   6  23
ATOM     23  O   UNL     1      32.472 -14.358 -25.081  0.00  0.00    -0.471 OA
ATOM     24  C   UNL     1      32.723 -14.061 -26.454  0.00  0.00    +0.252 C 
ENDBRANCH   6  23
TORSDOF 4
ENDMDL
MODEL 3
REMARK VINA RESULT:      -7.2      4.003      7.782
REMARK  Name = 5288600
REMARK  4 active torsions:
REMARK  status: ('A' for Active; 'I' for Inactive)
REMARK    1  A    between atoms: C_1  and  C_12
REMARK    2  A    between atoms: C_2  and  O_19
REMARK    3  A    between atoms: C_3  and  O_21
REMARK    4  A    between atoms: C_6  and  O_23
REMARK                            x       y       z     vdW  Elec       q    Type
REMARK                         _______ _______ _______ _____ _____    ______ ____
ROOT
ATOM      1  C   UNL     1      32.952 -14.056 -23.238  0.00  0.00    +0.068 C 
ATOM      2  C   UNL     1      33.860 -14.801 -22.463  0.00  0.00    +0.145 C 
ATOM      3  C   UNL     1      32.860 -14.344 -24.614  0.00  0.00    +0.145 C 
ATOM      4  C   UNL     1      34.648 -15.797 -23.040  0.00  0.00    +0.074 C 
ATOM      5  C   UNL     1      33.647 -15.339 -25.192  0.00  0.00    +0.074 C 
ATOM      6  C   UNL     1      34.541 -16.066 -24.405  0.00  0.00    +0.145 C 
ENDROOT
BRANCH   1  12
ATOM      7  O   UNL     1      30.506 -10.867 -21.448  0.00  0.00    -0.270 OA
ATOM      8  N   UNL     1      32.035  -9.465 -22.575  0.00  0.00    -0.280 N 
ATOM      9  C   UNL     1      32.343 -11.722 -22.796  0.00  0.00    +0.055 C 
ATOM     10  C   UNL     1      33.383 -11.044 -23.563  0.00  0.00    +0.018 C 
ATOM     11  C   UNL     1      33.150  -9.676 -23.395  0.00  0.00    +0.051 C 
ATOM     12  C   UNL     1      32.142 -13.032 -22.645  0.00  0.00    +0.011 C 
ATOM     13  C   UNL     1      31.474 -10.676 -22.160  0.00  0.00    +0.250 C 
ATOM     14  C   UNL     1      34.438 -11.490 -24.337  0.00  0.00    +0.001 C 
ATOM     15  C   UNL     1      33.946  -8.713 -23.982  0.00  0.00    +0.015 C 
ATOM     16  C   UNL     1      35.256 -10.531 -24.942  0.00  0.00    +0.000 C 
ATOM     17  C   UNL     1      35.012  -9.156 -24.767  0.00  0.00    +0.001 C 
ATOM     18  H   UNL     1      31.691  -8.577 -22.324  0.00  0.00    +0.155 HD
ENDBRANCH   1  12
BRANCH   2  19
ATOM     19  O   UNL     1      33.985 -14.560 -21.126  0.00  0.00    -0.471 OA
ATOM     20  C   UNL     1      34.530 -15.607 -20.328  0.00  0.00    +0.252 C 
ENDBRANCH   2  19
BRANCH   3  21
ATOM     21  O   UNL     1      31.995 -13.650 -25.407  0.00  0.00    -0.471 OA
ATOM     22  C   UNL     1      32.379 -13.451 -26.765  0.00  0.00    +0.252 C 
ENDBRANCH   3  21
BRANCH   6  23
ATOM     23  O   UNL     1      35.310 -17.037 -24.969  0.00  0.00    -0.471 OA
ATOM     24  C   UNL     1      34.917 -18.390 -24.741  0.00  0.00    +0.252 C 
ENDBRANCH   6  23
TORSDOF 4
ENDMDL
MODEL 4
REMARK VINA RESULT:      -7.2      4.003      7.547
REMARK  Name = 5288600
REMARK  4 active torsions:
REMARK  status: ('A' for Active; 'I' for Inactive)
REMARK    1  A    between atoms: C_1  and  C_12
REMARK    2  A    between atoms: C_2  and  O_19
REMARK    3  A    between atoms: C_3  and  O_21
REMARK    4  A    between atoms: C_6  and  O_23
REMARK                            x       y       z     vdW  Elec       q    Type
REMARK                         _______ _______ _______ _____ _____    ______ ____
ROOT
ATOM      1  C   UNL     1      32.951 -14.056 -23.234  0.00  0.00    +0.068 C 
ATOM      2  C   UNL     1      32.860 -14.347 -24.608  0.00  0.00    +0.145 C 
ATOM      3  C   UNL     1      33.862 -14.797 -22.457  0.00  0.00    +0.145 C 
ATOM      4  C   UNL     1      33.649 -15.343 -25.184  0.00  0.00    +0.074 C 
ATOM      5  C   UNL     1      34.651 -15.792 -23.031  0.00  0.00    +0.074 C 
ATOM      6  C   UNL     1      34.545 -16.066 -24.396  0.00  0.00    +0.145 C 
ENDROOT
BRANCH   1  12
ATOM      7  O   UNL     1      30.502 -10.867 -21.450  0.00  0.00    -0.270 OA
ATOM      8  N   UNL     1      32.032  -9.465 -22.577  0.00  0.00    -0.280 N 
ATOM      9  C   UNL     1      32.341 -11.722 -22.795  0.00  0.00    +0.055 C 
ATOM     10  C   UNL     1      33.382 -11.045 -23.562  0.00  0.00    +0.018 C 
ATOM     11  C   UNL     1      33.148  -9.677 -23.395  0.00  0.00    +0.051 C 
ATOM     12  C   UNL     1      32.140 -13.032 -22.643  0.00  0.00    +0.011 C 
ATOM     13  C   UNL     1      31.471 -10.676 -22.161  0.00  0.00    +0.250 C 
ATOM     14  C   UNL     1      34.438 -11.491 -24.334  0.00  0.00    +0.001 C 
ATOM     15  C   UNL     1      33.944  -8.714 -23.982  0.00  0.00    +0.015 C 
ATOM     16  C   UNL     1      35.257 -10.532 -24.939  0.00  0.00    +0.000 C 
ATOM     17  C   UNL     1      35.012  -9.157 -24.765  0.00  0.00    +0.001 C 
ATOM     18  H   UNL     1      31.687  -8.577 -22.327  0.00  0.00    +0.155 HD
ENDBRANCH   1  12
BRANCH   2  19
ATOM     19  O   UNL     1      31.993 -13.657 -25.404  0.00  0.00    -0.471 OA
ATOM     20  C   UNL     1      32.388 -13.441 -26.756  0.00  0.00    +0.252 C 
ENDBRANCH   2  19
BRANCH   3  21
ATOM     21  O   UNL     1      33.988 -14.551 -21.121  0.00  0.00    -0.471 OA
ATOM     22  C   UNL     1      34.521 -15.601 -20.317  0.00  0.00    +0.252 C 
ENDBRANCH   3  21
BRANCH   6  23
ATOM     23  O   UNL     1      35.315 -17.038 -24.957  0.00  0.00    -0.471 OA
ATOM     24  C   UNL     1      34.917 -18.390 -24.735  0.00  0.00    +0.252 C 
ENDBRANCH   6  23
TORSDOF 4
ENDMDL
MODEL 5
REMARK VINA RESULT:      -7.0      8.334     11.859
REMARK  Name = 5288600
REMARK  4 active torsions:
REMARK  status: ('A' for Active; 'I' for Inactive)
REMARK    1  A    between atoms: C_1  and  C_12
REMARK    2  A    between atoms: C_2  and  O_19
REMARK    3  A    between atoms: C_3  and  O_21
REMARK    4  A    between atoms: C_6  and  O_23
REMARK                            x       y       z     vdW  Elec       q    Type
REMARK                         _______ _______ _______ _____ _____    ______ ____
ROOT
ATOM      1  C   UNL     1      35.862 -24.824 -13.660  0.00  0.00    +0.068 C 
ATOM      2  C   UNL     1      36.646 -23.981 -12.851  0.00  0.00    +0.145 C 
ATOM      3  C   UNL     1      36.518 -25.637 -14.605  0.00  0.00    +0.145 C 
ATOM      4  C   UNL     1      38.035 -23.950 -12.981  0.00  0.00    +0.074 C 
ATOM      5  C   UNL     1      37.905 -25.606 -14.736  0.00  0.00    +0.074 C 
ATOM      6  C   UNL     1      38.665 -24.763 -13.924  0.00  0.00    +0.145 C 
ENDROOT
BRANCH   1  12
ATOM      7  O   UNL     1      31.477 -24.892 -13.310  0.00  0.00    -0.270 OA
ATOM      8  N   UNL     1      31.588 -23.782 -15.391  0.00  0.00    -0.280 N 
ATOM      9  C   UNL     1      33.577 -24.357 -14.418  0.00  0.00    +0.055 C 
ATOM     10  C   UNL     1      33.866 -23.689 -15.683  0.00  0.00    +0.018 C 
ATOM     11  C   UNL     1      32.624 -23.361 -16.233  0.00  0.00    +0.051 C 
ATOM     12  C   UNL     1      34.435 -24.856 -13.526  0.00  0.00    +0.011 C 
ATOM     13  C   UNL     1      32.086 -24.408 -14.245  0.00  0.00    +0.250 C 
ATOM     14  C   UNL     1      35.037 -23.368 -16.343  0.00  0.00    +0.001 C 
ATOM     15  C   UNL     1      32.500 -22.711 -17.444  0.00  0.00    +0.015 C 
ATOM     16  C   UNL     1      34.935 -22.710 -17.573  0.00  0.00    +0.000 C 
ATOM     17  C   UNL     1      33.678 -22.385 -18.118  0.00  0.00    +0.001 C 
ATOM     18  H   UNL     1      30.629 -23.654 -15.582  0.00  0.00    +0.155 HD
ENDBRANCH   1  12
BRANCH   2  19
ATOM     19  O   UNL     1      36.058 -23.175 -11.921  0.00  0.00    -0.471 OA
ATOM     20  C   UNL     1      36.061 -23.634 -10.571  0.00  0.00    +0.252 C 
ENDBRANCH   2  19
BRANCH   3  21
ATOM     21  O   UNL     1      35.802 -26.471 -15.412  0.00  0.00    -0.471 OA
ATOM     22  C   UNL     1      36.538 -27.430 -16.168  0.00  0.00    +0.252 C 
ENDBRANCH   3  21
BRANCH   6  23
ATOM     23  O   UNL     1      40.019 -24.733 -14.052  0.00  0.00    -0.471 OA
ATOM     24  C   UNL     1      40.641 -25.876 -14.638  0.00  0.00    +0.252 C 
ENDBRANCH   6  23
TORSDOF 4
ENDMDL
MODEL 6
REMARK VINA RESULT:      -6.9      8.327     11.583
REMARK  Name = 5288600
REMARK  4 active torsions:
REMARK  status: ('A' for Active; 'I' for Inactive)
REMARK    1  A    between atoms: C_1  and  C_12
REMARK    2  A    between atoms: C_2  and  O_19
REMARK    3  A    between atoms: C_3  and  O_21
REMARK    4  A    between atoms: C_6  and  O_23
REMARK                            x       y       z     vdW  Elec       q    Type
REMARK                         _______ _______ _______ _____ _____    ______ ____
ROOT
ATOM      1  C   UNL     1      35.856 -24.824 -13.652  0.00  0.00    +0.068 C 
ATOM      2  C   UNL     1      36.511 -25.635 -14.597  0.00  0.00    +0.145 C 
ATOM      3  C   UNL     1      36.641 -23.990 -12.834  0.00  0.00    +0.145 C 
ATOM      4  C   UNL     1      37.901 -25.614 -14.720  0.00  0.00    +0.074 C 
ATOM      5  C   UNL     1      38.030 -23.968 -12.955  0.00  0.00    +0.074 C 
ATOM      6  C   UNL     1      38.661 -24.780 -13.899  0.00  0.00    +0.145 C 
ENDROOT
BRANCH   1  12
ATOM      7  O   UNL     1      31.468 -24.861 -13.330  0.00  0.00    -0.270 OA
ATOM      8  N   UNL     1      31.600 -23.762 -15.416  0.00  0.00    -0.280 N 
ATOM      9  C   UNL     1      33.579 -24.345 -14.427  0.00  0.00    +0.055 C 
ATOM     10  C   UNL     1      33.881 -23.686 -15.693  0.00  0.00    +0.018 C 
ATOM     11  C   UNL     1      32.644 -23.352 -16.252  0.00  0.00    +0.051 C 
ATOM     12  C   UNL     1      34.427 -24.846 -13.527  0.00  0.00    +0.011 C 
ATOM     13  C   UNL     1      32.087 -24.386 -14.263  0.00  0.00    +0.250 C 
ATOM     14  C   UNL     1      35.058 -23.376 -16.347  0.00  0.00    +0.001 C 
ATOM     15  C   UNL     1      32.532 -22.706 -17.467  0.00  0.00    +0.015 C 
ATOM     16  C   UNL     1      34.968 -22.722 -17.580  0.00  0.00    +0.000 C 
ATOM     17  C   UNL     1      33.717 -22.391 -18.135  0.00  0.00    +0.001 C 
ATOM     18  H   UNL     1      30.644 -23.628 -15.613  0.00  0.00    +0.155 HD
ENDBRANCH   1  12
BRANCH   2  19
ATOM     19  O   UNL     1      35.795 -26.461 -15.413  0.00  0.00    -0.471 OA
ATOM     20  C   UNL     1      36.530 -27.409 -16.183  0.00  0.00    +0.252 C 
ENDBRANCH   2  19
BRANCH   3  21
ATOM     21  O   UNL     1      36.052 -23.185 -11.904  0.00  0.00    -0.471 OA
ATOM     22  C   UNL     1      36.040 -23.653 -10.557  0.00  0.00    +0.252 C 
ENDBRANCH   3  21
BRANCH   6  23
ATOM     23  O   UNL     1      40.016 -24.759 -14.017  0.00  0.00    -0.471 OA
ATOM     24  C   UNL     1      40.638 -25.922 -14.561  0.00  0.00    +0.252 C 
ENDBRANCH   6  23
TORSDOF 4
ENDMDL
MODEL 7
REMARK VINA RESULT:      -6.7      7.470     10.864
REMARK  Name = 5288600
REMARK  4 active torsions:
REMARK  status: ('A' for Active; 'I' for Inactive)
REMARK    1  A    between atoms: C_1  and  C_12
REMARK    2  A    between atoms: C_2  and  O_19
REMARK    3  A    between atoms: C_3  and  O_21
REMARK    4  A    between atoms: C_6  and  O_23
REMARK                            x       y       z     vdW  Elec       q    Type
REMARK                         _______ _______ _______ _____ _____    ______ ____
ROOT
ATOM      1  C   UNL     1      33.382  -9.385 -22.850  0.00  0.00    +0.068 C 
ATOM      2  C   UNL     1      34.445  -9.034 -23.702  0.00  0.00    +0.145 C 
ATOM      3  C   UNL     1      32.635 -10.539 -23.158  0.00  0.00    +0.145 C 
ATOM      4  C   UNL     1      34.752  -9.807 -24.822  0.00  0.00    +0.074 C 
ATOM      5  C   UNL     1      32.941 -11.312 -24.277  0.00  0.00    +0.074 C 
ATOM      6  C   UNL     1      33.999 -10.947 -25.110  0.00  0.00    +0.145 C 
ENDROOT
BRANCH   1  12
ATOM      7  O   UNL     1      32.386  -6.900 -19.358  0.00  0.00    -0.270 OA
ATOM      8  N   UNL     1      31.498  -5.460 -21.006  0.00  0.00    -0.280 N 
ATOM      9  C   UNL     1      32.449  -7.408 -21.738  0.00  0.00    +0.055 C 
ATOM     10  C   UNL     1      31.967  -6.672 -22.902  0.00  0.00    +0.018 C 
ATOM     11  C   UNL     1      31.399  -5.497 -22.401  0.00  0.00    +0.051 C 
ATOM     12  C   UNL     1      33.067  -8.590 -21.698  0.00  0.00    +0.011 C 
ATOM     13  C   UNL     1      32.134  -6.602 -20.511  0.00  0.00    +0.250 C 
ATOM     14  C   UNL     1      31.983  -6.925 -24.261  0.00  0.00    +0.001 C 
ATOM     15  C   UNL     1      30.832  -4.542 -23.221  0.00  0.00    +0.015 C 
ATOM     16  C   UNL     1      31.413  -5.971 -25.110  0.00  0.00    +0.000 C 
ATOM     17  C   UNL     1      30.843  -4.791 -24.595  0.00  0.00    +0.001 C 
ATOM     18  H   UNL     1      31.163  -4.723 -20.444  0.00  0.00    +0.155 HD
ENDBRANCH   1  12
BRANCH   2  19
ATOM     19  O   UNL     1      35.198  -7.926 -23.446  0.00  0.00    -0.471 OA
ATOM     20  C   UNL     1      35.139  -6.868 -24.399  0.00  0.00    +0.252 C 
ENDBRANCH   2  19
BRANCH   3  21
ATOM     21  O   UNL     1      31.596 -10.920 -22.362  0.00  0.00    -0.471 OA
ATOM     22  C   UNL     1      31.737 -12.152 -21.659  0.00  0.00    +0.252 C 
ENDBRANCH   3  21
BRANCH   6  23
ATOM     23  O   UNL     1      34.297 -11.701 -26.202  0.00  0.00    -0.471 OA
ATOM     24  C   UNL     1      33.388 -12.750 -26.534  0.00  0.00    +0.252 C 
ENDBRANCH   6  23
TORSDOF 4
ENDMDL
MODEL 8
REMARK VINA RESULT:      -6.6      7.461     10.795
REMARK  Name = 5288600
REMARK  4 active torsions:
REMARK  status: ('A' for Active; 'I' for Inactive)
REMARK    1  A    between atoms: C_1  and  C_12
REMARK    2  A    between atoms: C_2  and  O_19
REMARK    3  A    between atoms: C_3  and  O_21
REMARK    4  A    between atoms: C_6  and  O_23
REMARK                            x       y       z     vdW  Elec       q    Type
REMARK                         _______ _______ _______ _____ _____    ______ ____
ROOT
ATOM      1  C   UNL     1      33.379  -9.396 -22.855  0.00  0.00    +0.068 C 
ATOM      2  C   UNL     1      32.624 -10.543 -23.164  0.00  0.00    +0.145 C 
ATOM      3  C   UNL     1      34.443  -9.050 -23.710  0.00  0.00    +0.145 C 
ATOM      4  C   UNL     1      32.923 -11.317 -24.286  0.00  0.00    +0.074 C 
ATOM      5  C   UNL     1      34.742  -9.823 -24.831  0.00  0.00    +0.074 C 
ATOM      6  C   UNL     1      33.982 -10.957 -25.119  0.00  0.00    +0.145 C 
ENDROOT
BRANCH   1  12
ATOM      7  O   UNL     1      32.405  -6.908 -19.359  0.00  0.00    -0.270 OA
ATOM      8  N   UNL     1      31.511  -5.468 -21.002  0.00  0.00    -0.280 N 
ATOM      9  C   UNL     1      32.454  -7.417 -21.739  0.00  0.00    +0.055 C 
ATOM     10  C   UNL     1      31.968  -6.682 -22.901  0.00  0.00    +0.018 C 
ATOM     11  C   UNL     1      31.404  -5.506 -22.397  0.00  0.00    +0.051 C 
ATOM     12  C   UNL     1      33.071  -8.600 -21.702  0.00  0.00    +0.011 C 
ATOM     13  C   UNL     1      32.148  -6.611 -20.510  0.00  0.00    +0.250 C 
ATOM     14  C   UNL     1      31.976  -6.935 -24.260  0.00  0.00    +0.001 C 
ATOM     15  C   UNL     1      30.835  -4.550 -23.215  0.00  0.00    +0.015 C 
ATOM     16  C   UNL     1      31.404  -5.980 -25.106  0.00  0.00    +0.000 C 
ATOM     17  C   UNL     1      30.838  -4.799 -24.589  0.00  0.00    +0.001 C 
ATOM     18  H   UNL     1      31.180  -4.730 -20.439  0.00  0.00    +0.155 HD
ENDBRANCH   1  12
BRANCH   2  19
ATOM     19  O   UNL     1      31.584 -10.920 -22.367  0.00  0.00    -0.471 OA
ATOM     20  C   UNL     1      31.731 -12.138 -21.642  0.00  0.00    +0.252 C 
ENDBRANCH   2  19
BRANCH   3  21
ATOM     21  O   UNL     1      35.202  -7.946 -23.453  0.00  0.00    -0.471 OA
ATOM     22  C   UNL     1      35.139  -6.882 -24.400  0.00  0.00    +0.252 C 
ENDBRANCH   3  21
BRANCH   6  23
ATOM     23  O   UNL     1      34.274 -11.712 -26.213  0.00  0.00    -0.471 OA
ATOM     24  C   UNL     1      33.376 -12.775 -26.526  0.00  0.00    +0.252 C 
ENDBRANCH   6  23
TORSDOF 4
ENDMDL
MODEL 9
REMARK VINA RESULT:      -6.6      7.444     10.565
REMARK  Name = 5288600
REMARK  4 active torsions:
REMARK  status: ('A' for Active; 'I' for Inactive)
REMARK    1  A    between atoms: C_1  and  C_12
REMARK    2  A    between atoms: C_2  and  O_19
REMARK    3  A    between atoms: C_3  and  O_21
REMARK    4  A    between atoms: C_6  and  O_23
REMARK                            x       y       z     vdW  Elec       q    Type
REMARK                         _______ _______ _______ _____ _____    ______ ____
ROOT
ATOM      1  C   UNL     1      35.023 -23.131 -14.586  0.00  0.00    +0.068 C 
ATOM      2  C   UNL     1      33.829 -23.856 -14.755  0.00  0.00    +0.145 C 
ATOM      3  C   UNL     1      35.599 -22.524 -15.719  0.00  0.00    +0.145 C 
ATOM      4  C   UNL     1      33.232 -23.973 -16.011  0.00  0.00    +0.074 C 
ATOM      5  C   UNL     1      35.004 -22.640 -16.974  0.00  0.00    +0.074 C 
ATOM      6  C   UNL     1      33.820 -23.364 -17.121  0.00  0.00    +0.145 C 
ENDROOT
BRANCH   1  12
ATOM      7  O   UNL     1      36.955 -22.804 -10.647  0.00  0.00    -0.270 OA
ATOM      8  N   UNL     1      38.545 -24.244 -11.634  0.00  0.00    -0.280 N 
ATOM      9  C   UNL     1      36.773 -23.610 -12.936  0.00  0.00    +0.055 C 
ATOM     10  C   UNL     1      37.627 -24.489 -13.728  0.00  0.00    +0.018 C 
ATOM     11  C   UNL     1      38.688 -24.845 -12.890  0.00  0.00    +0.051 C 
ATOM     12  C   UNL     1      35.636 -23.011 -13.295  0.00  0.00    +0.011 C 
ATOM     13  C   UNL     1      37.387 -23.462 -11.574  0.00  0.00    +0.250 C 
ATOM     14  C   UNL     1      37.559 -24.968 -15.023  0.00  0.00    +0.001 C 
ATOM     15  C   UNL     1      39.708 -25.679 -13.303  0.00  0.00    +0.015 C 
ATOM     16  C   UNL     1      38.583 -25.814 -15.461  0.00  0.00    +0.000 C 
ATOM     17  C   UNL     1      39.647 -26.166 -14.610  0.00  0.00    +0.001 C 
ATOM     18  H   UNL     1      39.178 -24.358 -10.888  0.00  0.00    +0.155 HD
ENDBRANCH   1  12
BRANCH   2  19
ATOM     19  O   UNL     1      33.232 -24.461 -13.689  0.00  0.00    -0.471 OA
ATOM     20  C   UNL     1      31.913 -24.963 -13.884  0.00  0.00    +0.252 C 
ENDBRANCH   2  19
BRANCH   3  21
ATOM     21  O   UNL     1      36.755 -21.810 -15.606  0.00  0.00    -0.471 OA
ATOM     22  C   UNL     1      37.345 -21.338 -16.814  0.00  0.00    +0.252 C 
ENDBRANCH   3  21
BRANCH   6  23
ATOM     23  O   UNL     1      33.239 -23.477 -18.346  0.00  0.00    -0.471 OA
ATOM     24  C   UNL     1      33.805 -22.708 -19.406  0.00  0.00    +0.252 C 
ENDBRANCH   6  23
TORSDOF 4
ENDMDL
