MODEL 1
REMARK VINA RESULT:      -8.1      0.000      0.000
REMARK  Name = 1758
REMARK  8 active torsions:
REMARK  status: ('A' for Active; 'I' for Inactive)
REMARK    1  A    between atoms: C_1  and  C_9
REMARK    2  A    between atoms: C_2  and  S_19
REMARK    3  A    between atoms: N_8  and  C_11
REMARK    4  A    between atoms: C_11  and  C_12
REMARK    5  A    between atoms: C_12  and  C_13
REMARK    6  A    between atoms: C_13  and  C_14
REMARK    7  A    between atoms: C_14  and  N_15
REMARK    8  A    between atoms: S_19  and  N_22
REMARK                            x       y       z     vdW  Elec       q    Type
REMARK                         _______ _______ _______ _____ _____    ______ ____
ROOT
ATOM      1  C   UNL     1      34.785 -19.097 -21.076  0.00  0.00    +0.053 C 
ATOM      2  C   UNL     1      34.279 -21.370 -19.597  0.00  0.00    +0.122 C 
ATOM      3  C   UNL     1      35.850 -19.838 -20.608  0.00  0.00    +0.006 C 
ATOM      4  C   UNL     1      33.475 -19.454 -20.829  0.00  0.00    +0.006 C 
ATOM      5  C   UNL     1      35.595 -20.988 -19.861  0.00  0.00    +0.020 C 
ATOM      6  C   UNL     1      33.220 -20.603 -20.081  0.00  0.00    +0.020 C 
ENDROOT
BRANCH   1   9
ATOM      7  O   UNL     1      35.739 -17.958 -22.889  0.00  0.00    -0.270 OA
ATOM      8  N   UNL     1      34.478 -16.715 -21.393  0.00  0.00    -0.301 N 
ATOM      9  C   UNL     1      35.057 -17.872 -21.872  0.00  0.00    +0.246 C 
ATOM     10  H   UNL     1      33.948 -16.755 -20.565  0.00  0.00    +0.150 HD
BRANCH   8  11
ATOM     11  C   UNL     1      34.631 -15.437 -22.077  0.00  0.00    +0.090 C 
BRANCH  11  12
ATOM     12  C   UNL     1      33.407 -15.149 -22.946  0.00  0.00    +0.019 C 
BRANCH  12  13
ATOM     13  C   UNL     1      33.816 -14.839 -24.389  0.00  0.00    -0.022 C 
BRANCH  13  14
ATOM     14  C   UNL     1      33.782 -16.059 -25.311  0.00  0.00    -0.086 C 
BRANCH  14  15
ATOM     15  N   UNL     1      35.061 -16.758 -25.354  0.00  0.00    +0.380 N 
ATOM     16  H   UNL     1      35.599 -16.536 -24.517  0.00  0.00    -0.089 HD
ATOM     17  H   UNL     1      35.581 -16.462 -26.180  0.00  0.00    -0.089 HD
ATOM     18  H   UNL     1      34.898 -17.763 -25.397  0.00  0.00    -0.089 HD
ENDBRANCH  14  15
ENDBRANCH  13  14
ENDBRANCH  12  13
ENDBRANCH  11  12
ENDBRANCH   8  11
ENDBRANCH   1   9
BRANCH   2  19
ATOM     19  S   UNL     1      33.960 -22.809 -18.661  0.00  0.00    +0.057 S 
ATOM     20  O   UNL     1      33.926 -23.919 -19.611  0.00  0.00    -0.153 OA
ATOM     21  O   UNL     1      34.942 -22.797 -17.580  0.00  0.00    -0.153 OA
BRANCH  19  22
ATOM     22  N   UNL     1      32.393 -22.685 -17.959  0.00  0.00    -0.203 NA
ATOM     23  H   UNL     1      32.237 -21.727 -17.644  0.00  0.00    +0.144 HD
ATOM     24  H   UNL     1      32.326 -23.319 -17.163  0.00  0.00    +0.144 HD
ENDBRANCH  19  22
ENDBRANCH   2  19
TORSDOF 8
ENDMDL
MODEL 2
REMARK VINA RESULT:      -8.1      1.429      2.210
REMARK  Name = 1758
REMARK  8 active torsions:
REMARK  status: ('A' for Active; 'I' for Inactive)
REMARK    1  A    between atoms: C_1  and  C_9
REMARK    2  A    between atoms: C_2  and  S_19
REMARK    3  A    between atoms: N_8  and  C_11
REMARK    4  A    between atoms: C_11  and  C_12
REMARK    5  A    between atoms: C_12  and  C_13
REMARK    6  A    between atoms: C_13  and  C_14
REMARK    7  A    between atoms: C_14  and  N_15
REMARK    8  A    between atoms: S_19  and  N_22
REMARK                            x       y       z     vdW  Elec       q    Type
REMARK                         _______ _______ _______ _____ _____    ______ ____
ROOT
ATOM      1  C   UNL     1      34.629 -19.096 -21.233  0.00  0.00    +0.053 C 
ATOM      2  C   UNL     1      34.084 -21.312 -19.683  0.00  0.00    +0.122 C 
ATOM      3  C   UNL     1      33.315 -19.408 -20.956  0.00  0.00    +0.006 C 
ATOM      4  C   UNL     1      35.681 -19.855 -20.763  0.00  0.00    +0.006 C 
ATOM      5  C   UNL     1      33.039 -20.528 -20.172  0.00  0.00    +0.020 C 
ATOM      6  C   UNL     1      35.405 -20.975 -19.979  0.00  0.00    +0.020 C 
ENDROOT
BRANCH   1   9
ATOM      7  O   UNL     1      35.212 -16.844 -21.520  0.00  0.00    -0.270 OA
ATOM      8  N   UNL     1      34.867 -18.107 -23.432  0.00  0.00    -0.301 N 
ATOM      9  C   UNL     1      34.923 -17.903 -22.069  0.00  0.00    +0.246 C 
ATOM     10  H   UNL     1      34.624 -18.999 -23.771  0.00  0.00    +0.150 HD
BRANCH   8  11
ATOM     11  C   UNL     1      35.155 -17.041 -24.383  0.00  0.00    +0.090 C 
BRANCH  11  12
ATOM     12  C   UNL     1      33.876 -16.605 -25.097  0.00  0.00    +0.019 C 
BRANCH  12  13
ATOM     13  C   UNL     1      33.627 -15.105 -24.914  0.00  0.00    -0.022 C 
BRANCH  13  14
ATOM     14  C   UNL     1      33.311 -14.710 -23.470  0.00  0.00    -0.086 C 
BRANCH  14  15
ATOM     15  N   UNL     1      34.422 -14.019 -22.828  0.00  0.00    +0.380 N 
ATOM     16  H   UNL     1      34.595 -14.431 -21.911  0.00  0.00    -0.089 HD
ATOM     17  H   UNL     1      34.191 -13.032 -22.718  0.00  0.00    -0.089 HD
ATOM     18  H   UNL     1      35.258 -14.111 -23.404  0.00  0.00    -0.089 HD
ENDBRANCH  14  15
ENDBRANCH  13  14
ENDBRANCH  12  13
ENDBRANCH  11  12
ENDBRANCH   8  11
ENDBRANCH   1   9
BRANCH   2  19
ATOM     19  S   UNL     1      33.738 -22.715 -18.702  0.00  0.00    +0.057 S 
ATOM     20  O   UNL     1      32.429 -22.480 -18.096  0.00  0.00    -0.153 OA
ATOM     21  O   UNL     1      33.946 -23.865 -19.579  0.00  0.00    -0.153 OA
BRANCH  19  22
ATOM     22  N   UNL     1      34.890 -22.803 -17.425  0.00  0.00    -0.203 NA
ATOM     23  H   UNL     1      35.772 -23.164 -17.788  0.00  0.00    +0.144 HD
ATOM     24  H   UNL     1      34.542 -23.426 -16.697  0.00  0.00    +0.144 HD
ENDBRANCH  19  22
ENDBRANCH   2  19
TORSDOF 8
ENDMDL
MODEL 3
REMARK VINA RESULT:      -8.1      1.615      2.291
REMARK  Name = 1758
REMARK  8 active torsions:
REMARK  status: ('A' for Active; 'I' for Inactive)
REMARK    1  A    between atoms: C_1  and  C_9
REMARK    2  A    between atoms: C_2  and  S_19
REMARK    3  A    between atoms: N_8  and  C_11
REMARK    4  A    between atoms: C_11  and  C_12
REMARK    5  A    between atoms: C_12  and  C_13
REMARK    6  A    between atoms: C_13  and  C_14
REMARK    7  A    between atoms: C_14  and  N_15
REMARK    8  A    between atoms: S_19  and  N_22
REMARK                            x       y       z     vdW  Elec       q    Type
REMARK                         _______ _______ _______ _____ _____    ______ ____
ROOT
ATOM      1  C   UNL     1      34.962 -19.288 -21.136  0.00  0.00    +0.053 C 
ATOM      2  C   UNL     1      34.187 -21.428 -19.577  0.00  0.00    +0.122 C 
ATOM      3  C   UNL     1      35.934 -20.080 -20.561  0.00  0.00    +0.006 C 
ATOM      4  C   UNL     1      33.615 -19.529 -20.957  0.00  0.00    +0.006 C 
ATOM      5  C   UNL     1      35.542 -21.162 -19.773  0.00  0.00    +0.020 C 
ATOM      6  C   UNL     1      33.223 -20.611 -20.169  0.00  0.00    +0.020 C 
ENDROOT
BRANCH   1   9
ATOM      7  O   UNL     1      36.431 -18.200 -22.603  0.00  0.00    -0.270 OA
ATOM      8  N   UNL     1      34.504 -17.068 -21.990  0.00  0.00    -0.301 N 
ATOM      9  C   UNL     1      35.379 -18.135 -21.975  0.00  0.00    +0.246 C 
ATOM     10  H   UNL     1      33.684 -17.116 -21.448  0.00  0.00    +0.150 HD
BRANCH   8  11
ATOM     11  C   UNL     1      34.759 -15.874 -22.786  0.00  0.00    +0.090 C 
BRANCH  11  12
ATOM     12  C   UNL     1      34.472 -14.617 -21.965  0.00  0.00    +0.019 C 
BRANCH  12  13
ATOM     13  C   UNL     1      33.267 -14.824 -21.043  0.00  0.00    -0.022 C 
BRANCH  13  14
ATOM     14  C   UNL     1      32.345 -13.605 -20.959  0.00  0.00    -0.086 C 
BRANCH  14  15
ATOM     15  N   UNL     1      31.936 -13.126 -22.274  0.00  0.00    +0.380 N 
ATOM     16  H   UNL     1      30.939 -12.910 -22.262  0.00  0.00    -0.089 HD
ATOM     17  H   UNL     1      32.119 -13.849 -22.970  0.00  0.00    -0.089 HD
ATOM     18  H   UNL     1      32.463 -12.286 -22.508  0.00  0.00    -0.089 HD
ENDBRANCH  14  15
ENDBRANCH  13  14
ENDBRANCH  12  13
ENDBRANCH  11  12
ENDBRANCH   8  11
ENDBRANCH   1   9
BRANCH   2  19
ATOM     19  S   UNL     1      33.697 -22.783 -18.591  0.00  0.00    +0.057 S 
ATOM     20  O   UNL     1      32.360 -22.466 -18.090  0.00  0.00    -0.153 OA
ATOM     21  O   UNL     1      33.908 -23.966 -19.420  0.00  0.00    -0.153 OA
BRANCH  19  22
ATOM     22  N   UNL     1      34.744 -22.892 -17.229  0.00  0.00    -0.203 NA
ATOM     23  H   UNL     1      34.584 -22.096 -16.612  0.00  0.00    +0.144 HD
ATOM     24  H   UNL     1      35.714 -22.888 -17.545  0.00  0.00    +0.144 HD
ENDBRANCH  19  22
ENDBRANCH   2  19
TORSDOF 8
ENDMDL
MODEL 4
REMARK VINA RESULT:      -7.8      3.540      8.078
REMARK  Name = 1758
REMARK  8 active torsions:
REMARK  status: ('A' for Active; 'I' for Inactive)
REMARK    1  A    between atoms: C_1  and  C_9
REMARK    2  A    between atoms: C_2  and  S_19
REMARK    3  A    between atoms: N_8  and  C_11
REMARK    4  A    between atoms: C_11  and  C_12
REMARK    5  A    between atoms: C_12  and  C_13
REMARK    6  A    between atoms: C_13  and  C_14
REMARK    7  A    between atoms: C_14  and  N_15
REMARK    8  A    between atoms: S_19  and  N_22
REMARK                            x       y       z     vdW  Elec       q    Type
REMARK                         _______ _______ _______ _____ _____    ______ ____
ROOT
ATOM      1  C   UNL     1      33.948 -21.465 -19.403  0.00  0.00    +0.053 C 
ATOM      2  C   UNL     1      34.530 -19.595 -21.345  0.00  0.00    +0.122 C 
ATOM      3  C   UNL     1      35.261 -21.290 -19.786  0.00  0.00    +0.006 C 
ATOM      4  C   UNL     1      32.915 -20.738 -19.958  0.00  0.00    +0.006 C 
ATOM      5  C   UNL     1      35.556 -20.344 -20.768  0.00  0.00    +0.020 C 
ATOM      6  C   UNL     1      33.210 -19.792 -20.940  0.00  0.00    +0.020 C 
ENDROOT
BRANCH   1   9
ATOM      7  O   UNL     1      34.516 -23.239 -17.978  0.00  0.00    -0.270 OA
ATOM      8  N   UNL     1      32.342 -22.441 -17.874  0.00  0.00    -0.301 N 
ATOM      9  C   UNL     1      33.634 -22.473 -18.357  0.00  0.00    +0.246 C 
ATOM     10  H   UNL     1      31.709 -21.786 -18.247  0.00  0.00    +0.150 HD
BRANCH   8  11
ATOM     11  C   UNL     1      31.888 -23.349 -16.828  0.00  0.00    +0.090 C 
BRANCH  11  12
ATOM     12  C   UNL     1      30.527 -22.905 -16.292  0.00  0.00    +0.019 C 
BRANCH  12  13
ATOM     13  C   UNL     1      30.311 -23.401 -14.859  0.00  0.00    -0.022 C 
BRANCH  13  14
ATOM     14  C   UNL     1      30.385 -24.923 -14.721  0.00  0.00    -0.086 C 
BRANCH  14  15
ATOM     15  N   UNL     1      29.093 -25.515 -14.396  0.00  0.00    +0.380 N 
ATOM     16  H   UNL     1      29.138 -26.525 -14.532  0.00  0.00    -0.089 HD
ATOM     17  H   UNL     1      28.377 -25.122 -15.006  0.00  0.00    -0.089 HD
ATOM     18  H   UNL     1      28.861 -25.312 -13.424  0.00  0.00    -0.089 HD
ENDBRANCH  14  15
ENDBRANCH  13  14
ENDBRANCH  12  13
ENDBRANCH  11  12
ENDBRANCH   8  11
ENDBRANCH   1   9
BRANCH   2  19
ATOM     19  S   UNL     1      34.899 -18.411 -22.574  0.00  0.00    +0.057 S 
ATOM     20  O   UNL     1      34.475 -18.993 -23.846  0.00  0.00    -0.153 OA
ATOM     21  O   UNL     1      34.305 -17.162 -22.104  0.00  0.00    -0.153 OA
BRANCH  19  22
ATOM     22  N   UNL     1      36.605 -18.195 -22.650  0.00  0.00    -0.203 NA
ATOM     23  H   UNL     1      37.023 -18.475 -21.762  0.00  0.00    +0.144 HD
ATOM     24  H   UNL     1      36.816 -17.213 -22.830  0.00  0.00    +0.144 HD
ENDBRANCH  19  22
ENDBRANCH   2  19
TORSDOF 8
ENDMDL
MODEL 5
REMARK VINA RESULT:      -7.7      3.491      8.268
REMARK  Name = 1758
REMARK  8 active torsions:
REMARK  status: ('A' for Active; 'I' for Inactive)
REMARK    1  A    between atoms: C_1  and  C_9
REMARK    2  A    between atoms: C_2  and  S_19
REMARK    3  A    between atoms: N_8  and  C_11
REMARK    4  A    between atoms: C_11  and  C_12
REMARK    5  A    between atoms: C_12  and  C_13
REMARK    6  A    between atoms: C_13  and  C_14
REMARK    7  A    between atoms: C_14  and  N_15
REMARK    8  A    between atoms: S_19  and  N_22
REMARK                            x       y       z     vdW  Elec       q    Type
REMARK                         _______ _______ _______ _____ _____    ______ ____
ROOT
ATOM      1  C   UNL     1      33.839 -21.724 -19.262  0.00  0.00    +0.053 C 
ATOM      2  C   UNL     1      34.884 -19.749 -20.879  0.00  0.00    +0.122 C 
ATOM      3  C   UNL     1      32.978 -20.827 -19.860  0.00  0.00    +0.006 C 
ATOM      4  C   UNL     1      35.205 -21.666 -19.445  0.00  0.00    +0.006 C 
ATOM      5  C   UNL     1      33.506 -19.829 -20.678  0.00  0.00    +0.020 C 
ATOM      6  C   UNL     1      35.733 -20.667 -20.263  0.00  0.00    +0.020 C 
ENDROOT
BRANCH   1   9
ATOM      7  O   UNL     1      33.759 -23.916 -18.434  0.00  0.00    -0.270 OA
ATOM      8  N   UNL     1      32.244 -22.393 -17.566  0.00  0.00    -0.301 N 
ATOM      9  C   UNL     1      33.277 -22.788 -18.390  0.00  0.00    +0.246 C 
ATOM     10  H   UNL     1      31.929 -21.461 -17.608  0.00  0.00    +0.150 HD
BRANCH   8  11
ATOM     11  C   UNL     1      31.606 -23.314 -16.634  0.00  0.00    +0.090 C 
BRANCH  11  12
ATOM     12  C   UNL     1      32.255 -23.211 -15.255  0.00  0.00    +0.019 C 
BRANCH  12  13
ATOM     13  C   UNL     1      31.241 -23.508 -14.145  0.00  0.00    -0.022 C 
BRANCH  13  14
ATOM     14  C   UNL     1      31.038 -25.002 -13.886  0.00  0.00    -0.086 C 
BRANCH  14  15
ATOM     15  N   UNL     1      29.708 -25.457 -14.275  0.00  0.00    +0.380 N 
ATOM     16  H   UNL     1      29.191 -25.744 -13.445  0.00  0.00    -0.089 HD
ATOM     17  H   UNL     1      29.793 -26.248 -14.913  0.00  0.00    -0.089 HD
ATOM     18  H   UNL     1      29.211 -24.697 -14.739  0.00  0.00    -0.089 HD
ENDBRANCH  14  15
ENDBRANCH  13  14
ENDBRANCH  12  13
ENDBRANCH  11  12
ENDBRANCH   8  11
ENDBRANCH   1   9
BRANCH   2  19
ATOM     19  S   UNL     1      35.545 -18.498 -21.903  0.00  0.00    +0.057 S 
ATOM     20  O   UNL     1      36.998 -18.590 -21.778  0.00  0.00    -0.153 OA
ATOM     21  O   UNL     1      34.907 -18.681 -23.204  0.00  0.00    -0.153 OA
BRANCH  19  22
ATOM     22  N   UNL     1      35.071 -16.962 -21.288  0.00  0.00    -0.203 NA
ATOM     23  H   UNL     1      35.145 -16.965 -20.271  0.00  0.00    +0.144 HD
ATOM     24  H   UNL     1      34.106 -16.771 -21.557  0.00  0.00    +0.144 HD
ENDBRANCH  19  22
ENDBRANCH   2  19
TORSDOF 8
ENDMDL
MODEL 6
REMARK VINA RESULT:      -7.5      5.201      7.405
REMARK  Name = 1758
REMARK  8 active torsions:
REMARK  status: ('A' for Active; 'I' for Inactive)
REMARK    1  A    between atoms: C_1  and  C_9
REMARK    2  A    between atoms: C_2  and  S_19
REMARK    3  A    between atoms: N_8  and  C_11
REMARK    4  A    between atoms: C_11  and  C_12
REMARK    5  A    between atoms: C_12  and  C_13
REMARK    6  A    between atoms: C_13  and  C_14
REMARK    7  A    between atoms: C_14  and  N_15
REMARK    8  A    between atoms: S_19  and  N_22
REMARK                            x       y       z     vdW  Elec       q    Type
REMARK                         _______ _______ _______ _____ _____    ______ ____
ROOT
ATOM      1  C   UNL     1      34.459 -23.421 -15.320  0.00  0.00    +0.053 C 
ATOM      2  C   UNL     1      35.832 -23.790 -12.956  0.00  0.00    +0.122 C 
ATOM      3  C   UNL     1      33.816 -24.033 -14.265  0.00  0.00    +0.006 C 
ATOM      4  C   UNL     1      35.767 -22.988 -15.234  0.00  0.00    +0.006 C 
ATOM      5  C   UNL     1      34.509 -24.219 -13.069  0.00  0.00    +0.020 C 
ATOM      6  C   UNL     1      36.460 -23.174 -14.038  0.00  0.00    +0.020 C 
ENDROOT
BRANCH   1   9
ATOM      7  O   UNL     1      32.515 -23.449 -16.629  0.00  0.00    -0.270 OA
ATOM      8  N   UNL     1      34.479 -22.765 -17.652  0.00  0.00    -0.301 N 
ATOM      9  C   UNL     1      33.721 -23.223 -16.594  0.00  0.00    +0.246 C 
ATOM     10  H   UNL     1      35.443 -22.616 -17.519  0.00  0.00    +0.150 HD
BRANCH   8  11
ATOM     11  C   UNL     1      33.895 -22.498 -18.960  0.00  0.00    +0.090 C 
BRANCH  11  12
ATOM     12  C   UNL     1      34.561 -21.282 -19.602  0.00  0.00    +0.019 C 
BRANCH  12  13
ATOM     13  C   UNL     1      33.539 -20.427 -20.358  0.00  0.00    -0.022 C 
BRANCH  13  14
ATOM     14  C   UNL     1      34.155 -19.216 -21.061  0.00  0.00    -0.086 C 
BRANCH  14  15
ATOM     15  N   UNL     1      35.570 -19.052 -20.747  0.00  0.00    +0.380 N 
ATOM     16  H   UNL     1      36.122 -19.174 -21.596  0.00  0.00    -0.089 HD
ATOM     17  H   UNL     1      35.847 -19.750 -20.058  0.00  0.00    -0.089 HD
ATOM     18  H   UNL     1      35.728 -18.118 -20.369  0.00  0.00    -0.089 HD
ENDBRANCH  14  15
ENDBRANCH  13  14
ENDBRANCH  12  13
ENDBRANCH  11  12
ENDBRANCH   8  11
ENDBRANCH   1   9
BRANCH   2  19
ATOM     19  S   UNL     1      36.700 -24.023 -11.458  0.00  0.00    +0.057 S 
ATOM     20  O   UNL     1      37.566 -25.183 -11.662  0.00  0.00    -0.153 OA
ATOM     21  O   UNL     1      37.279 -22.722 -11.136  0.00  0.00    -0.153 OA
BRANCH  19  22
ATOM     22  N   UNL     1      35.577 -24.429 -10.217  0.00  0.00    -0.203 NA
ATOM     23  H   UNL     1      35.433 -23.621  -9.612  0.00  0.00    +0.144 HD
ATOM     24  H   UNL     1      35.946 -25.204  -9.667  0.00  0.00    +0.144 HD
ENDBRANCH  19  22
ENDBRANCH   2  19
TORSDOF 8
ENDMDL
MODEL 7
REMARK VINA RESULT:      -7.4      4.948      6.875
REMARK  Name = 1758
REMARK  8 active torsions:
REMARK  status: ('A' for Active; 'I' for Inactive)
REMARK    1  A    between atoms: C_1  and  C_9
REMARK    2  A    between atoms: C_2  and  S_19
REMARK    3  A    between atoms: N_8  and  C_11
REMARK    4  A    between atoms: C_11  and  C_12
REMARK    5  A    between atoms: C_12  and  C_13
REMARK    6  A    between atoms: C_13  and  C_14
REMARK    7  A    between atoms: C_14  and  N_15
REMARK    8  A    between atoms: S_19  and  N_22
REMARK                            x       y       z     vdW  Elec       q    Type
REMARK                         _______ _______ _______ _____ _____    ______ ____
ROOT
ATOM      1  C   UNL     1      36.208 -22.750 -15.961  0.00  0.00    +0.053 C 
ATOM      2  C   UNL     1      36.326 -24.039 -13.526  0.00  0.00    +0.122 C 
ATOM      3  C   UNL     1      35.040 -22.948 -15.256  0.00  0.00    +0.006 C 
ATOM      4  C   UNL     1      37.433 -23.175 -15.491  0.00  0.00    +0.006 C 
ATOM      5  C   UNL     1      35.099 -23.600 -14.024  0.00  0.00    +0.020 C 
ATOM      6  C   UNL     1      37.493 -23.826 -14.259  0.00  0.00    +0.020 C 
ENDROOT
BRANCH   1   9
ATOM      7  O   UNL     1      37.049 -21.286 -17.589  0.00  0.00    -0.270 OA
ATOM      8  N   UNL     1      35.053 -22.368 -18.056  0.00  0.00    -0.301 N 
ATOM      9  C   UNL     1      36.146 -22.056 -17.274  0.00  0.00    +0.246 C 
ATOM     10  H   UNL     1      34.382 -22.999 -17.709  0.00  0.00    +0.150 HD
BRANCH   8  11
ATOM     11  C   UNL     1      34.863 -21.789 -19.380  0.00  0.00    +0.090 C 
BRANCH  11  12
ATOM     12  C   UNL     1      33.402 -21.392 -19.583  0.00  0.00    +0.019 C 
BRANCH  12  13
ATOM     13  C   UNL     1      33.283 -20.178 -20.510  0.00  0.00    -0.022 C 
BRANCH  13  14
ATOM     14  C   UNL     1      34.631 -19.664 -21.019  0.00  0.00    -0.086 C 
BRANCH  14  15
ATOM     15  N   UNL     1      34.615 -19.386 -22.450  0.00  0.00    +0.380 N 
ATOM     16  H   UNL     1      35.447 -18.854 -22.703  0.00  0.00    -0.089 HD
ATOM     17  H   UNL     1      33.782 -18.844 -22.681  0.00  0.00    -0.089 HD
ATOM     18  H   UNL     1      34.603 -20.265 -22.967  0.00  0.00    -0.089 HD
ENDBRANCH  14  15
ENDBRANCH  13  14
ENDBRANCH  12  13
ENDBRANCH  11  12
ENDBRANCH   8  11
ENDBRANCH   1   9
BRANCH   2  19
ATOM     19  S   UNL     1      36.399 -24.855 -11.983  0.00  0.00    +0.057 S 
ATOM     20  O   UNL     1      37.429 -24.170 -11.205  0.00  0.00    -0.153 OA
ATOM     21  O   UNL     1      35.022 -24.900 -11.500  0.00  0.00    -0.153 OA
BRANCH  19  22
ATOM     22  N   UNL     1      36.931 -26.473 -12.231  0.00  0.00    -0.203 NA
ATOM     23  H   UNL     1      36.165 -27.117 -12.032  0.00  0.00    +0.144 HD
ATOM     24  H   UNL     1      37.713 -26.673 -11.608  0.00  0.00    +0.144 HD
ENDBRANCH  19  22
ENDBRANCH   2  19
TORSDOF 8
ENDMDL
MODEL 8
REMARK VINA RESULT:      -7.4      4.570      6.504
REMARK  Name = 1758
REMARK  8 active torsions:
REMARK  status: ('A' for Active; 'I' for Inactive)
REMARK    1  A    between atoms: C_1  and  C_9
REMARK    2  A    between atoms: C_2  and  S_19
REMARK    3  A    between atoms: N_8  and  C_11
REMARK    4  A    between atoms: C_11  and  C_12
REMARK    5  A    between atoms: C_12  and  C_13
REMARK    6  A    between atoms: C_13  and  C_14
REMARK    7  A    between atoms: C_14  and  N_15
REMARK    8  A    between atoms: S_19  and  N_22
REMARK                            x       y       z     vdW  Elec       q    Type
REMARK                         _______ _______ _______ _____ _____    ______ ____
ROOT
ATOM      1  C   UNL     1      33.187 -14.136 -22.187  0.00  0.00    +0.053 C 
ATOM      2  C   UNL     1      34.421 -16.596 -22.008  0.00  0.00    +0.122 C 
ATOM      3  C   UNL     1      34.135 -14.475 -23.129  0.00  0.00    +0.006 C 
ATOM      4  C   UNL     1      32.835 -14.984 -21.157  0.00  0.00    +0.006 C 
ATOM      5  C   UNL     1      34.759 -15.719 -23.039  0.00  0.00    +0.020 C 
ATOM      6  C   UNL     1      33.459 -16.228 -21.067  0.00  0.00    +0.020 C 
ENDROOT
BRANCH   1   9
ATOM      7  O   UNL     1      32.786 -12.073 -23.228  0.00  0.00    -0.270 OA
ATOM      8  N   UNL     1      31.619 -12.528 -21.278  0.00  0.00    -0.301 N 
ATOM      9  C   UNL     1      32.521 -12.810 -22.282  0.00  0.00    +0.246 C 
ATOM     10  H   UNL     1      31.479 -13.189 -20.562  0.00  0.00    +0.150 HD
BRANCH   8  11
ATOM     11  C   UNL     1      30.867 -11.280 -21.246  0.00  0.00    +0.090 C 
BRANCH  11  12
ATOM     12  C   UNL     1      30.749 -10.766 -19.812  0.00  0.00    +0.019 C 
BRANCH  12  13
ATOM     13  C   UNL     1      31.970  -9.926 -19.424  0.00  0.00    -0.022 C 
BRANCH  13  14
ATOM     14  C   UNL     1      32.296  -8.821 -20.431  0.00  0.00    -0.086 C 
BRANCH  14  15
ATOM     15  N   UNL     1      32.963  -7.684 -19.809  0.00  0.00    +0.380 N 
ATOM     16  H   UNL     1      33.290  -7.948 -18.879  0.00  0.00    -0.089 HD
ATOM     17  H   UNL     1      32.307  -6.907 -19.730  0.00  0.00    -0.089 HD
ATOM     18  H   UNL     1      33.758  -7.401 -20.381  0.00  0.00    -0.089 HD
ENDBRANCH  14  15
ENDBRANCH  13  14
ENDBRANCH  12  13
ENDBRANCH  11  12
ENDBRANCH   8  11
ENDBRANCH   1   9
BRANCH   2  19
ATOM     19  S   UNL     1      35.204 -18.153 -21.896  0.00  0.00    +0.057 S 
ATOM     20  O   UNL     1      35.794 -18.221 -20.560  0.00  0.00    -0.153 OA
ATOM     21  O   UNL     1      34.194 -19.127 -22.303  0.00  0.00    -0.153 OA
BRANCH  19  22
ATOM     22  N   UNL     1      36.494 -18.215 -23.033  0.00  0.00    -0.203 NA
ATOM     23  H   UNL     1      37.352 -18.498 -22.559  0.00  0.00    +0.144 HD
ATOM     24  H   UNL     1      36.625 -17.293 -23.449  0.00  0.00    +0.144 HD
ENDBRANCH  19  22
ENDBRANCH   2  19
TORSDOF 8
ENDMDL
MODEL 9
REMARK VINA RESULT:      -7.3      7.733      9.643
REMARK  Name = 1758
REMARK  8 active torsions:
REMARK  status: ('A' for Active; 'I' for Inactive)
REMARK    1  A    between atoms: C_1  and  C_9
REMARK    2  A    between atoms: C_2  and  S_19
REMARK    3  A    between atoms: N_8  and  C_11
REMARK    4  A    between atoms: C_11  and  C_12
REMARK    5  A    between atoms: C_12  and  C_13
REMARK    6  A    between atoms: C_13  and  C_14
REMARK    7  A    between atoms: C_14  and  N_15
REMARK    8  A    between atoms: S_19  and  N_22
REMARK                            x       y       z     vdW  Elec       q    Type
REMARK                         _______ _______ _______ _____ _____    ______ ____
ROOT
ATOM      1  C   UNL     1      33.161 -23.390 -15.353  0.00  0.00    +0.053 C 
ATOM      2  C   UNL     1      30.429 -23.250 -15.706  0.00  0.00    +0.122 C 
ATOM      3  C   UNL     1      32.340 -23.512 -14.252  0.00  0.00    +0.006 C 
ATOM      4  C   UNL     1      32.662 -23.200 -16.625  0.00  0.00    +0.006 C 
ATOM      5  C   UNL     1      30.958 -23.441 -14.430  0.00  0.00    +0.020 C 
ATOM      6  C   UNL     1      31.280 -23.129 -16.804  0.00  0.00    +0.020 C 
ENDROOT
BRANCH   1   9
ATOM      7  O   UNL     1      35.347 -23.735 -16.126  0.00  0.00    -0.270 OA
ATOM      8  N   UNL     1      35.080 -23.192 -13.888  0.00  0.00    -0.301 N 
ATOM      9  C   UNL     1      34.633 -23.465 -15.164  0.00  0.00    +0.246 C 
ATOM     10  H   UNL     1      34.421 -22.986 -13.186  0.00  0.00    +0.150 HD
BRANCH   8  11
ATOM     11  C   UNL     1      36.497 -23.200 -13.550  0.00  0.00    +0.090 C 
BRANCH  11  12
ATOM     12  C   UNL     1      36.945 -24.609 -13.164  0.00  0.00    +0.019 C 
BRANCH  12  13
ATOM     13  C   UNL     1      37.926 -25.177 -14.193  0.00  0.00    -0.022 C 
BRANCH  13  14
ATOM     14  C   UNL     1      37.504 -26.537 -14.755  0.00  0.00    -0.086 C 
BRANCH  14  15
ATOM     15  N   UNL     1      36.069 -26.614 -15.001  0.00  0.00    +0.380 N 
ATOM     16  H   UNL     1      35.607 -25.814 -14.570  0.00  0.00    -0.089 HD
ATOM     17  H   UNL     1      35.702 -27.476 -14.597  0.00  0.00    -0.089 HD
ATOM     18  H   UNL     1      35.896 -26.608 -16.005  0.00  0.00    -0.089 HD
ENDBRANCH  14  15
ENDBRANCH  13  14
ENDBRANCH  12  13
ENDBRANCH  11  12
ENDBRANCH   8  11
ENDBRANCH   1   9
BRANCH   2  19
ATOM     19  S   UNL     1      28.699 -23.161 -15.928  0.00  0.00    +0.057 S 
ATOM     20  O   UNL     1      28.149 -24.398 -15.375  0.00  0.00    -0.153 OA
ATOM     21  O   UNL     1      28.300 -21.869 -15.377  0.00  0.00    -0.153 OA
BRANCH  19  22
ATOM     22  N   UNL     1      28.350 -23.152 -17.614  0.00  0.00    -0.203 NA
ATOM     23  H   UNL     1      27.701 -22.393 -17.822  0.00  0.00    +0.144 HD
ATOM     24  H   UNL     1      27.929 -24.042 -17.879  0.00  0.00    +0.144 HD
ENDBRANCH  19  22
ENDBRANCH   2  19
TORSDOF 8
ENDMDL
