MODEL 1
REMARK VINA RESULT:      -7.0      0.000      0.000
REMARK  Name = 1698
REMARK  11 active torsions:
REMARK  status: ('A' for Active; 'I' for Inactive)
REMARK    1  A    between atoms: C_1  and  C_3
REMARK    2  A    between atoms: C_1  and  C_10
REMARK    3  A    between atoms: C_3  and  C_4
REMARK    4  A    between atoms: C_4  and  C_5
REMARK    5  A    between atoms: C_5  and  C_7
REMARK    6  A    between atoms: C_7  and  O_8
REMARK    7  A    between atoms: C_10  and  C_12
REMARK    8  A    between atoms: C_12  and  C_13
REMARK    9  A    between atoms: C_13  and  C_14
REMARK   10  A    between atoms: C_14  and  C_16
REMARK   11  A    between atoms: C_16  and  O_17
REMARK                            x       y       z     vdW  Elec       q    Type
REMARK                         _______ _______ _______ _____ _____    ______ ____
ROOT
ATOM      1  C   UNL     1      33.954 -18.968 -21.016  0.00  0.00    +0.072 C 
ENDROOT
BRANCH   1   3
ATOM      2  O   UNL     1      35.099 -16.865 -20.917  0.00  0.00    -0.296 OA
ATOM      3  C   UNL     1      34.953 -17.938 -21.505  0.00  0.00    +0.152 C 
BRANCH   3   4
ATOM      4  C   UNL     1      35.804 -18.288 -22.711  0.00  0.00    +0.076 C 
BRANCH   4   5
ATOM      5  C   UNL     1      34.989 -18.262 -23.998  0.00  0.00    +0.117 C 
BRANCH   5   7
ATOM      6  O   UNL     1      34.552 -16.673 -25.796  0.00  0.00    -0.250 OA
ATOM      7  C   UNL     1      34.985 -16.910 -24.678  0.00  0.00    +0.314 C 
BRANCH   7   8
ATOM      8  O   UNL     1      35.529 -15.954 -23.879  0.00  0.00    -0.480 OA
ATOM      9  H   UNL     1      36.217 -15.407 -24.203  0.00  0.00    +0.295 HD
ENDBRANCH   7   8
ENDBRANCH   5   7
ENDBRANCH   4   5
ENDBRANCH   3   4
ENDBRANCH   1   3
BRANCH   1  10
ATOM     10  C   UNL     1      34.635 -20.290 -20.683  0.00  0.00    +0.072 C 
BRANCH  10  12
ATOM     11  O   UNL     1      32.625 -21.111 -19.622  0.00  0.00    -0.296 OA
ATOM     12  C   UNL     1      33.852 -21.153 -19.704  0.00  0.00    +0.152 C 
BRANCH  12  13
ATOM     13  C   UNL     1      34.692 -22.073 -18.828  0.00  0.00    +0.076 C 
BRANCH  13  14
ATOM     14  C   UNL     1      36.176 -21.719 -18.822  0.00  0.00    +0.117 C 
BRANCH  14  16
ATOM     15  O   UNL     1      36.812 -22.742 -16.700  0.00  0.00    -0.250 OA
ATOM     16  C   UNL     1      36.780 -21.770 -17.439  0.00  0.00    +0.314 C 
BRANCH  16  17
ATOM     17  O   UNL     1      37.307 -20.561 -17.117  0.00  0.00    -0.480 OA
ATOM     18  H   UNL     1      37.644 -20.003 -17.790  0.00  0.00    +0.295 HD
ENDBRANCH  16  17
ENDBRANCH  14  16
ENDBRANCH  13  14
ENDBRANCH  12  13
ENDBRANCH  10  12
ENDBRANCH   1  10
TORSDOF 11
ENDMDL
MODEL 2
REMARK VINA RESULT:      -6.9      2.054      3.741
REMARK  Name = 1698
REMARK  11 active torsions:
REMARK  status: ('A' for Active; 'I' for Inactive)
REMARK    1  A    between atoms: C_1  and  C_3
REMARK    2  A    between atoms: C_1  and  C_10
REMARK    3  A    between atoms: C_3  and  C_4
REMARK    4  A    between atoms: C_4  and  C_5
REMARK    5  A    between atoms: C_5  and  C_7
REMARK    6  A    between atoms: C_7  and  O_8
REMARK    7  A    between atoms: C_10  and  C_12
REMARK    8  A    between atoms: C_12  and  C_13
REMARK    9  A    between atoms: C_13  and  C_14
REMARK   10  A    between atoms: C_14  and  C_16
REMARK   11  A    between atoms: C_16  and  O_17
REMARK                            x       y       z     vdW  Elec       q    Type
REMARK                         _______ _______ _______ _____ _____    ______ ____
ROOT
ATOM      1  C   UNL     1      35.493 -17.917 -23.532  0.00  0.00    +0.072 C 
ENDROOT
BRANCH   1   3
ATOM      2  O   UNL     1      34.899 -17.000 -25.666  0.00  0.00    -0.296 OA
ATOM      3  C   UNL     1      34.792 -16.925 -24.440  0.00  0.00    +0.152 C 
BRANCH   3   4
ATOM      4  C   UNL     1      33.915 -15.867 -23.797  0.00  0.00    +0.076 C 
BRANCH   4   5
ATOM      5  C   UNL     1      34.629 -15.174 -22.643  0.00  0.00    +0.117 C 
BRANCH   5   7
ATOM      6  O   UNL     1      32.753 -15.512 -21.121  0.00  0.00    -0.250 OA
ATOM      7  C   UNL     1      33.955 -15.388 -21.305  0.00  0.00    +0.314 C 
BRANCH   7   8
ATOM      8  O   UNL     1      34.865 -15.437 -20.296  0.00  0.00    -0.480 OA
ATOM      9  H   UNL     1      35.139 -14.647 -19.873  0.00  0.00    +0.295 HD
ENDBRANCH   7   8
ENDBRANCH   5   7
ENDBRANCH   4   5
ENDBRANCH   3   4
ENDBRANCH   1   3
BRANCH   1  10
ATOM     10  C   UNL     1      34.503 -18.884 -22.895  0.00  0.00    +0.072 C 
BRANCH  10  12
ATOM     11  O   UNL     1      35.492 -18.373 -20.750  0.00  0.00    -0.296 OA
ATOM     12  C   UNL     1      34.673 -19.032 -21.389  0.00  0.00    +0.152 C 
BRANCH  12  13
ATOM     13  C   UNL     1      33.762 -20.057 -20.727  0.00  0.00    +0.076 C 
BRANCH  13  14
ATOM     14  C   UNL     1      34.506 -21.051 -19.842  0.00  0.00    +0.117 C 
BRANCH  14  16
ATOM     15  O   UNL     1      32.528 -21.962 -18.741  0.00  0.00    -0.250 OA
ATOM     16  C   UNL     1      33.604 -22.131 -19.295  0.00  0.00    +0.314 C 
BRANCH  16  17
ATOM     17  O   UNL     1      34.154 -23.353 -19.515  0.00  0.00    -0.480 OA
ATOM     18  H   UNL     1      35.014 -23.420 -19.881  0.00  0.00    +0.295 HD
ENDBRANCH  16  17
ENDBRANCH  14  16
ENDBRANCH  13  14
ENDBRANCH  12  13
ENDBRANCH  10  12
ENDBRANCH   1  10
TORSDOF 11
ENDMDL
MODEL 3
REMARK VINA RESULT:      -6.9      0.243      7.020
REMARK  Name = 1698
REMARK  11 active torsions:
REMARK  status: ('A' for Active; 'I' for Inactive)
REMARK    1  A    between atoms: C_1  and  C_3
REMARK    2  A    between atoms: C_1  and  C_10
REMARK    3  A    between atoms: C_3  and  C_4
REMARK    4  A    between atoms: C_4  and  C_5
REMARK    5  A    between atoms: C_5  and  C_7
REMARK    6  A    between atoms: C_7  and  O_8
REMARK    7  A    between atoms: C_10  and  C_12
REMARK    8  A    between atoms: C_12  and  C_13
REMARK    9  A    between atoms: C_13  and  C_14
REMARK   10  A    between atoms: C_14  and  C_16
REMARK   11  A    between atoms: C_16  and  O_17
REMARK                            x       y       z     vdW  Elec       q    Type
REMARK                         _______ _______ _______ _____ _____    ______ ____
ROOT
ATOM      1  C   UNL     1      34.873 -20.265 -20.641  0.00  0.00    +0.072 C 
ENDROOT
BRANCH   1   3
ATOM      2  O   UNL     1      32.790 -21.178 -19.883  0.00  0.00    -0.296 OA
ATOM      3  C   UNL     1      34.017 -21.157 -19.763  0.00  0.00    +0.152 C 
BRANCH   3   4
ATOM      4  C   UNL     1      34.718 -22.061 -18.767  0.00  0.00    +0.076 C 
BRANCH   4   5
ATOM      5  C   UNL     1      36.205 -21.740 -18.671  0.00  0.00    +0.117 C 
BRANCH   5   7
ATOM      6  O   UNL     1      36.675 -22.856 -16.553  0.00  0.00    -0.250 OA
ATOM      7  C   UNL     1      36.756 -21.866 -17.266  0.00  0.00    +0.314 C 
BRANCH   7   8
ATOM      8  O   UNL     1      37.377 -20.722 -16.876  0.00  0.00    -0.480 OA
ATOM      9  H   UNL     1      37.197 -19.916 -17.318  0.00  0.00    +0.295 HD
ENDBRANCH   7   8
ENDBRANCH   5   7
ENDBRANCH   4   5
ENDBRANCH   3   4
ENDBRANCH   1   3
BRANCH   1  10
ATOM     10  C   UNL     1      34.155 -18.965 -20.982  0.00  0.00    +0.072 C 
BRANCH  10  12
ATOM     11  O   UNL     1      35.176 -16.815 -20.563  0.00  0.00    -0.296 OA
ATOM     12  C   UNL     1      35.095 -17.807 -21.287  0.00  0.00    +0.152 C 
BRANCH  12  13
ATOM     13  C   UNL     1      35.930 -17.960 -22.552  0.00  0.00    +0.076 C 
BRANCH  13  14
ATOM     14  C   UNL     1      35.094 -18.187 -23.807  0.00  0.00    +0.117 C 
BRANCH  14  16
ATOM     15  O   UNL     1      34.588 -16.910 -25.825  0.00  0.00    -0.250 OA
ATOM     16  C   UNL     1      35.008 -16.957 -24.679  0.00  0.00    +0.314 C 
BRANCH  16  17
ATOM     17  O   UNL     1      35.462 -15.873 -23.998  0.00  0.00    -0.480 OA
ATOM     18  H   UNL     1      36.331 -15.869 -23.648  0.00  0.00    +0.295 HD
ENDBRANCH  16  17
ENDBRANCH  14  16
ENDBRANCH  13  14
ENDBRANCH  12  13
ENDBRANCH  10  12
ENDBRANCH   1  10
TORSDOF 11
ENDMDL
MODEL 4
REMARK VINA RESULT:      -6.8      5.532      9.771
REMARK  Name = 1698
REMARK  11 active torsions:
REMARK  status: ('A' for Active; 'I' for Inactive)
REMARK    1  A    between atoms: C_1  and  C_3
REMARK    2  A    between atoms: C_1  and  C_10
REMARK    3  A    between atoms: C_3  and  C_4
REMARK    4  A    between atoms: C_4  and  C_5
REMARK    5  A    between atoms: C_5  and  C_7
REMARK    6  A    between atoms: C_7  and  O_8
REMARK    7  A    between atoms: C_10  and  C_12
REMARK    8  A    between atoms: C_12  and  C_13
REMARK    9  A    between atoms: C_13  and  C_14
REMARK   10  A    between atoms: C_14  and  C_16
REMARK   11  A    between atoms: C_16  and  O_17
REMARK                            x       y       z     vdW  Elec       q    Type
REMARK                         _______ _______ _______ _____ _____    ______ ____
ROOT
ATOM      1  C   UNL     1      36.165 -23.765 -12.808  0.00  0.00    +0.072 C 
ENDROOT
BRANCH   1   3
ATOM      2  O   UNL     1      36.673 -25.943 -11.945  0.00  0.00    -0.296 OA
ATOM      3  C   UNL     1      37.091 -24.927 -12.503  0.00  0.00    +0.152 C 
BRANCH   3   4
ATOM      4  C   UNL     1      38.537 -24.821 -12.950  0.00  0.00    +0.076 C 
BRANCH   4   5
ATOM      5  C   UNL     1      38.765 -25.532 -14.278  0.00  0.00    +0.117 C 
BRANCH   5   7
ATOM      6  O   UNL     1      41.049 -24.674 -14.315  0.00  0.00    -0.250 OA
ATOM      7  C   UNL     1      40.149 -25.306 -14.849  0.00  0.00    +0.314 C 
BRANCH   7   8
ATOM      8  O   UNL     1      40.288 -25.910 -16.059  0.00  0.00    -0.480 OA
ATOM      9  H   UNL     1      39.590 -25.874 -16.684  0.00  0.00    +0.295 HD
ENDBRANCH   7   8
ENDBRANCH   5   7
ENDBRANCH   4   5
ENDBRANCH   3   4
ENDBRANCH   1   3
BRANCH   1  10
ATOM     10  C   UNL     1      34.913 -24.231 -13.542  0.00  0.00    +0.072 C 
BRANCH  10  12
ATOM     11  O   UNL     1      35.559 -25.342 -15.588  0.00  0.00    -0.296 OA
ATOM     12  C   UNL     1      35.092 -24.339 -15.050  0.00  0.00    +0.152 C 
BRANCH  12  13
ATOM     13  C   UNL     1      34.655 -23.118 -15.848  0.00  0.00    +0.076 C 
BRANCH  13  14
ATOM     14  C   UNL     1      33.493 -23.395 -16.797  0.00  0.00    +0.117 C 
BRANCH  14  16
ATOM     15  O   UNL     1      32.780 -22.281 -18.848  0.00  0.00    -0.250 OA
ATOM     16  C   UNL     1      33.669 -22.728 -18.141  0.00  0.00    +0.314 C 
BRANCH  16  17
ATOM     17  O   UNL     1      34.987 -22.680 -18.466  0.00  0.00    -0.480 OA
ATOM     18  H   UNL     1      35.294 -22.047 -19.084  0.00  0.00    +0.295 HD
ENDBRANCH  16  17
ENDBRANCH  14  16
ENDBRANCH  13  14
ENDBRANCH  12  13
ENDBRANCH  10  12
ENDBRANCH   1  10
TORSDOF 11
ENDMDL
MODEL 5
REMARK VINA RESULT:      -6.7      1.888      6.905
REMARK  Name = 1698
REMARK  11 active torsions:
REMARK  status: ('A' for Active; 'I' for Inactive)
REMARK    1  A    between atoms: C_1  and  C_3
REMARK    2  A    between atoms: C_1  and  C_10
REMARK    3  A    between atoms: C_3  and  C_4
REMARK    4  A    between atoms: C_4  and  C_5
REMARK    5  A    between atoms: C_5  and  C_7
REMARK    6  A    between atoms: C_7  and  O_8
REMARK    7  A    between atoms: C_10  and  C_12
REMARK    8  A    between atoms: C_12  and  C_13
REMARK    9  A    between atoms: C_13  and  C_14
REMARK   10  A    between atoms: C_14  and  C_16
REMARK   11  A    between atoms: C_16  and  O_17
REMARK                            x       y       z     vdW  Elec       q    Type
REMARK                         _______ _______ _______ _____ _____    ______ ____
ROOT
ATOM      1  C   UNL     1      35.860 -18.406 -22.737  0.00  0.00    +0.072 C 
ENDROOT
BRANCH   1   3
ATOM      2  O   UNL     1      35.326 -17.499 -20.583  0.00  0.00    -0.296 OA
ATOM      3  C   UNL     1      35.190 -18.432 -21.377  0.00  0.00    +0.152 C 
BRANCH   3   4
ATOM      4  C   UNL     1      34.306 -19.619 -21.042  0.00  0.00    +0.076 C 
BRANCH   4   5
ATOM      5  C   UNL     1      35.053 -20.658 -20.216  0.00  0.00    +0.117 C 
BRANCH   5   7
ATOM      6  O   UNL     1      34.454 -22.752 -19.118  0.00  0.00    -0.250 OA
ATOM      7  C   UNL     1      34.138 -21.642 -19.518  0.00  0.00    +0.314 C 
BRANCH   7   8
ATOM      8  O   UNL     1      32.885 -21.133 -19.376  0.00  0.00    -0.480 OA
ATOM      9  H   UNL     1      32.679 -20.288 -19.724  0.00  0.00    +0.295 HD
ENDBRANCH   7   8
ENDBRANCH   5   7
ENDBRANCH   4   5
ENDBRANCH   3   4
ENDBRANCH   1   3
BRANCH   1  10
ATOM     10  C   UNL     1      34.834 -18.346 -23.861  0.00  0.00    +0.072 C 
BRANCH  10  12
ATOM     11  O   UNL     1      34.768 -16.923 -25.813  0.00  0.00    -0.296 OA
ATOM     12  C   UNL     1      34.797 -17.008 -24.586  0.00  0.00    +0.152 C 
BRANCH  12  13
ATOM     13  C   UNL     1      34.800 -15.778 -23.687  0.00  0.00    +0.076 C 
BRANCH  13  14
ATOM     14  C   UNL     1      33.536 -14.933 -23.807  0.00  0.00    +0.117 C 
BRANCH  14  16
ATOM     15  O   UNL     1      32.195 -13.692 -22.190  0.00  0.00    -0.250 OA
ATOM     16  C   UNL     1      32.896 -14.653 -22.469  0.00  0.00    +0.314 C 
BRANCH  16  17
ATOM     17  O   UNL     1      33.200 -15.644 -21.592  0.00  0.00    -0.480 OA
ATOM     18  H   UNL     1      33.605 -16.432 -21.897  0.00  0.00    +0.295 HD
ENDBRANCH  16  17
ENDBRANCH  14  16
ENDBRANCH  13  14
ENDBRANCH  12  13
ENDBRANCH  10  12
ENDBRANCH   1  10
TORSDOF 11
ENDMDL
MODEL 6
REMARK VINA RESULT:      -6.7      7.427      8.662
REMARK  Name = 1698
REMARK  11 active torsions:
REMARK  status: ('A' for Active; 'I' for Inactive)
REMARK    1  A    between atoms: C_1  and  C_3
REMARK    2  A    between atoms: C_1  and  C_10
REMARK    3  A    between atoms: C_3  and  C_4
REMARK    4  A    between atoms: C_4  and  C_5
REMARK    5  A    between atoms: C_5  and  C_7
REMARK    6  A    between atoms: C_7  and  O_8
REMARK    7  A    between atoms: C_10  and  C_12
REMARK    8  A    between atoms: C_12  and  C_13
REMARK    9  A    between atoms: C_13  and  C_14
REMARK   10  A    between atoms: C_14  and  C_16
REMARK   11  A    between atoms: C_16  and  O_17
REMARK                            x       y       z     vdW  Elec       q    Type
REMARK                         _______ _______ _______ _____ _____    ______ ____
ROOT
ATOM      1  C   UNL     1      32.891 -23.290 -15.565  0.00  0.00    +0.072 C 
ENDROOT
BRANCH   1   3
ATOM      2  O   UNL     1      31.358 -22.527 -17.243  0.00  0.00    -0.296 OA
ATOM      3  C   UNL     1      31.553 -23.270 -16.279  0.00  0.00    +0.152 C 
BRANCH   3   4
ATOM      4  C   UNL     1      30.478 -24.229 -15.804  0.00  0.00    +0.076 C 
BRANCH   4   5
ATOM      5  C   UNL     1      29.164 -23.507 -15.533  0.00  0.00    +0.117 C 
BRANCH   5   7
ATOM      6  O   UNL     1      27.766 -24.122 -17.435  0.00  0.00    -0.250 OA
ATOM      7  C   UNL     1      28.344 -23.265 -16.782  0.00  0.00    +0.314 C 
BRANCH   7   8
ATOM      8  O   UNL     1      28.315 -21.945 -17.105  0.00  0.00    -0.480 OA
ATOM      9  H   UNL     1      28.329 -21.296 -16.429  0.00  0.00    +0.295 HD
ENDBRANCH   7   8
ENDBRANCH   5   7
ENDBRANCH   4   5
ENDBRANCH   3   4
ENDBRANCH   1   3
BRANCH   1  10
ATOM     10  C   UNL     1      32.811 -24.066 -14.257  0.00  0.00    +0.072 C 
BRANCH  10  12
ATOM     11  O   UNL     1      34.375 -24.424 -12.449  0.00  0.00    -0.296 OA
ATOM     12  C   UNL     1      34.171 -24.406 -13.662  0.00  0.00    +0.152 C 
BRANCH  12  13
ATOM     13  C   UNL     1      35.265 -24.720 -14.674  0.00  0.00    +0.076 C 
BRANCH  13  14
ATOM     14  C   UNL     1      36.512 -25.338 -14.050  0.00  0.00    +0.117 C 
BRANCH  14  16
ATOM     15  O   UNL     1      38.104 -27.085 -14.657  0.00  0.00    -0.250 OA
ATOM     16  C   UNL     1      37.056 -26.491 -14.859  0.00  0.00    +0.314 C 
BRANCH  16  17
ATOM     17  O   UNL     1      36.197 -26.800 -15.864  0.00  0.00    -0.480 OA
ATOM     18  H   UNL     1      35.274 -26.689 -15.743  0.00  0.00    +0.295 HD
ENDBRANCH  16  17
ENDBRANCH  14  16
ENDBRANCH  13  14
ENDBRANCH  12  13
ENDBRANCH  10  12
ENDBRANCH   1  10
TORSDOF 11
ENDMDL
MODEL 7
REMARK VINA RESULT:      -6.7      4.626      7.571
REMARK  Name = 1698
REMARK  11 active torsions:
REMARK  status: ('A' for Active; 'I' for Inactive)
REMARK    1  A    between atoms: C_1  and  C_3
REMARK    2  A    between atoms: C_1  and  C_10
REMARK    3  A    between atoms: C_3  and  C_4
REMARK    4  A    between atoms: C_4  and  C_5
REMARK    5  A    between atoms: C_5  and  C_7
REMARK    6  A    between atoms: C_7  and  O_8
REMARK    7  A    between atoms: C_10  and  C_12
REMARK    8  A    between atoms: C_12  and  C_13
REMARK    9  A    between atoms: C_13  and  C_14
REMARK   10  A    between atoms: C_14  and  C_16
REMARK   11  A    between atoms: C_16  and  O_17
REMARK                            x       y       z     vdW  Elec       q    Type
REMARK                         _______ _______ _______ _____ _____    ______ ____
ROOT
ATOM      1  C   UNL     1      33.096 -23.562 -15.380  0.00  0.00    +0.072 C 
ENDROOT
BRANCH   1   3
ATOM      2  O   UNL     1      35.133 -23.374 -16.630  0.00  0.00    -0.296 OA
ATOM      3  C   UNL     1      33.904 -23.269 -16.629  0.00  0.00    +0.152 C 
BRANCH   3   4
ATOM      4  C   UNL     1      33.153 -22.892 -17.892  0.00  0.00    +0.076 C 
BRANCH   4   5
ATOM      5  C   UNL     1      34.101 -22.439 -18.994  0.00  0.00    +0.117 C 
BRANCH   5   7
ATOM      6  O   UNL     1      32.556 -20.658 -19.618  0.00  0.00    -0.250 OA
ATOM      7  C   UNL     1      33.675 -21.148 -19.659  0.00  0.00    +0.314 C 
BRANCH   7   8
ATOM      8  O   UNL     1      34.711 -20.569 -20.322  0.00  0.00    -0.480 OA
ATOM      9  H   UNL     1      34.816 -20.711 -21.243  0.00  0.00    +0.295 HD
ENDBRANCH   7   8
ENDBRANCH   5   7
ENDBRANCH   4   5
ENDBRANCH   3   4
ENDBRANCH   1   3
BRANCH   1  10
ATOM     10  C   UNL     1      31.613 -23.291 -15.601  0.00  0.00    +0.072 C 
BRANCH  10  12
ATOM     11  O   UNL     1      31.133 -25.391 -14.506  0.00  0.00    -0.296 OA
ATOM     12  C   UNL     1      30.707 -24.421 -15.132  0.00  0.00    +0.152 C 
BRANCH  12  13
ATOM     13  C   UNL     1      29.236 -24.271 -15.495  0.00  0.00    +0.076 C 
BRANCH  13  14
ATOM     14  C   UNL     1      28.806 -22.822 -15.704  0.00  0.00    +0.117 C 
BRANCH  14  16
ATOM     15  O   UNL     1      27.353 -21.617 -17.251  0.00  0.00    -0.250 OA
ATOM     16  C   UNL     1      27.883 -22.656 -16.888  0.00  0.00    +0.314 C 
BRANCH  16  17
ATOM     17  O   UNL     1      27.723 -23.845 -17.523  0.00  0.00    -0.480 OA
ATOM     18  H   UNL     1      28.105 -23.981 -18.368  0.00  0.00    +0.295 HD
ENDBRANCH  16  17
ENDBRANCH  14  16
ENDBRANCH  13  14
ENDBRANCH  12  13
ENDBRANCH  10  12
ENDBRANCH   1  10
TORSDOF 11
ENDMDL
MODEL 8
REMARK VINA RESULT:      -6.7      7.370      9.870
REMARK  Name = 1698
REMARK  11 active torsions:
REMARK  status: ('A' for Active; 'I' for Inactive)
REMARK    1  A    between atoms: C_1  and  C_3
REMARK    2  A    between atoms: C_1  and  C_10
REMARK    3  A    between atoms: C_3  and  C_4
REMARK    4  A    between atoms: C_4  and  C_5
REMARK    5  A    between atoms: C_5  and  C_7
REMARK    6  A    between atoms: C_7  and  O_8
REMARK    7  A    between atoms: C_10  and  C_12
REMARK    8  A    between atoms: C_12  and  C_13
REMARK    9  A    between atoms: C_13  and  C_14
REMARK   10  A    between atoms: C_14  and  C_16
REMARK   11  A    between atoms: C_16  and  O_17
REMARK                            x       y       z     vdW  Elec       q    Type
REMARK                         _______ _______ _______ _____ _____    ______ ____
ROOT
ATOM      1  C   UNL     1      33.227 -23.270 -15.330  0.00  0.00    +0.072 C 
ENDROOT
BRANCH   1   3
ATOM      2  O   UNL     1      35.221 -23.405 -16.652  0.00  0.00    -0.296 OA
ATOM      3  C   UNL     1      34.588 -23.834 -15.686  0.00  0.00    +0.152 C 
BRANCH   3   4
ATOM      4  C   UNL     1      35.171 -24.908 -14.787  0.00  0.00    +0.076 C 
BRANCH   4   5
ATOM      5  C   UNL     1      36.671 -25.064 -15.001  0.00  0.00    +0.117 C 
BRANCH   5   7
ATOM      6  O   UNL     1      37.763 -27.090 -14.190  0.00  0.00    -0.250 OA
ATOM      7  C   UNL     1      37.122 -26.509 -15.054  0.00  0.00    +0.314 C 
BRANCH   7   8
ATOM      8  O   UNL     1      36.717 -27.110 -16.204  0.00  0.00    -0.480 OA
ATOM      9  H   UNL     1      36.198 -27.889 -16.168  0.00  0.00    +0.295 HD
ENDBRANCH   7   8
ENDBRANCH   5   7
ENDBRANCH   4   5
ENDBRANCH   3   4
ENDBRANCH   1   3
BRANCH   1  10
ATOM     10  C   UNL     1      32.429 -24.243 -14.471  0.00  0.00    +0.072 C 
BRANCH  10  12
ATOM     11  O   UNL     1      30.751 -23.781 -12.794  0.00  0.00    -0.296 OA
ATOM     12  C   UNL     1      31.109 -23.674 -13.966  0.00  0.00    +0.152 C 
BRANCH  12  13
ATOM     13  C   UNL     1      30.261 -22.965 -15.014  0.00  0.00    +0.076 C 
BRANCH  13  14
ATOM     14  C   UNL     1      29.180 -23.852 -15.623  0.00  0.00    +0.117 C 
BRANCH  14  16
ATOM     15  O   UNL     1      28.243 -21.922 -16.786  0.00  0.00    -0.250 OA
ATOM     16  C   UNL     1      28.358 -23.132 -16.665  0.00  0.00    +0.314 C 
BRANCH  16  17
ATOM     17  O   UNL     1      27.754 -24.032 -17.483  0.00  0.00    -0.480 OA
ATOM     18  H   UNL     1      28.271 -24.619 -17.998  0.00  0.00    +0.295 HD
ENDBRANCH  16  17
ENDBRANCH  14  16
ENDBRANCH  13  14
ENDBRANCH  12  13
ENDBRANCH  10  12
ENDBRANCH   1  10
TORSDOF 11
ENDMDL
MODEL 9
REMARK VINA RESULT:      -6.7      5.625     10.170
REMARK  Name = 1698
REMARK  11 active torsions:
REMARK  status: ('A' for Active; 'I' for Inactive)
REMARK    1  A    between atoms: C_1  and  C_3
REMARK    2  A    between atoms: C_1  and  C_10
REMARK    3  A    between atoms: C_3  and  C_4
REMARK    4  A    between atoms: C_4  and  C_5
REMARK    5  A    between atoms: C_5  and  C_7
REMARK    6  A    between atoms: C_7  and  O_8
REMARK    7  A    between atoms: C_10  and  C_12
REMARK    8  A    between atoms: C_12  and  C_13
REMARK    9  A    between atoms: C_13  and  C_14
REMARK   10  A    between atoms: C_14  and  C_16
REMARK   11  A    between atoms: C_16  and  O_17
REMARK                            x       y       z     vdW  Elec       q    Type
REMARK                         _______ _______ _______ _____ _____    ______ ____
ROOT
ATOM      1  C   UNL     1      37.099 -25.889 -14.006  0.00  0.00    +0.072 C 
ENDROOT
BRANCH   1   3
ATOM      2  O   UNL     1      39.091 -24.555 -13.995  0.00  0.00    -0.296 OA
ATOM      3  C   UNL     1      38.137 -24.999 -13.351  0.00  0.00    +0.152 C 
BRANCH   3   4
ATOM      4  C   UNL     1      37.942 -24.629 -11.893  0.00  0.00    +0.076 C 
BRANCH   4   5
ATOM      5  C   UNL     1      36.724 -23.733 -11.701  0.00  0.00    +0.117 C 
BRANCH   5   7
ATOM      6  O   UNL     1      35.505 -24.449  -9.713  0.00  0.00    -0.250 OA
ATOM      7  C   UNL     1      35.605 -24.400 -10.931  0.00  0.00    +0.314 C 
BRANCH   7   8
ATOM      8  O   UNL     1      34.687 -24.950 -11.769  0.00  0.00    -0.480 OA
ATOM      9  H   UNL     1      33.971 -25.443 -11.422  0.00  0.00    +0.295 HD
ENDBRANCH   7   8
ENDBRANCH   5   7
ENDBRANCH   4   5
ENDBRANCH   3   4
ENDBRANCH   1   3
BRANCH   1  10
ATOM     10  C   UNL     1      36.541 -25.253 -15.273  0.00  0.00    +0.072 C 
BRANCH  10  12
ATOM     11  O   UNL     1      34.280 -24.646 -14.672  0.00  0.00    -0.296 OA
ATOM     12  C   UNL     1      35.401 -24.276 -15.018  0.00  0.00    +0.152 C 
BRANCH  12  13
ATOM     13  C   UNL     1      35.743 -22.806 -15.224  0.00  0.00    +0.076 C 
BRANCH  13  14
ATOM     14  C   UNL     1      37.028 -22.586 -16.015  0.00  0.00    +0.117 C 
BRANCH  14  16
ATOM     15  O   UNL     1      36.217 -22.144 -18.274  0.00  0.00    -0.250 OA
ATOM     16  C   UNL     1      36.806 -21.775 -17.270  0.00  0.00    +0.314 C 
BRANCH  16  17
ATOM     17  O   UNL     1      37.354 -20.541 -17.128  0.00  0.00    -0.480 OA
ATOM     18  H   UNL     1      37.279 -20.085 -16.313  0.00  0.00    +0.295 HD
ENDBRANCH  16  17
ENDBRANCH  14  16
ENDBRANCH  13  14
ENDBRANCH  12  13
ENDBRANCH  10  12
ENDBRANCH   1  10
TORSDOF 11
ENDMDL
