MODEL 1
REMARK VINA RESULT:      -9.2      0.000      0.000
REMARK  Name = 5359929
REMARK  2 active torsions:
REMARK  status: ('A' for Active; 'I' for Inactive)
REMARK    1  A    between atoms: C_13  and  O_21
REMARK    2  A    between atoms: C_19  and  O_23
REMARK                            x       y       z     vdW  Elec       q    Type
REMARK                         _______ _______ _______ _____ _____    ______ ____
ROOT
ATOM      1  O   UNL     1      31.524 -11.244 -22.802  0.00  0.00    -0.473 OA
ATOM      2  O   UNL     1      32.461  -5.077 -24.238  0.00  0.00    -0.290 OA
ATOM      3  N   UNL     1      31.764  -5.981 -23.460  0.00  0.00    +0.431 N 
ATOM      4  C   UNL     1      31.527  -8.818 -22.579  0.00  0.00    +0.061 C 
ATOM      5  C   UNL     1      31.964  -7.717 -21.601  0.00  0.00    +0.016 C 
ATOM      6  C   UNL     1      32.723  -6.649 -22.445  0.00  0.00    -0.005 C 
ATOM      7  C   UNL     1      31.009 -10.145 -21.972  0.00  0.00    +0.200 C 
ATOM      8  C   UNL     1      30.564  -8.237 -23.634  0.00  0.00    -0.009 C 
ATOM      9  C   UNL     1      32.747  -9.369 -23.242  0.00  0.00    +0.014 C 
ATOM     10  C   UNL     1      31.136  -7.022 -24.369  0.00  0.00    -0.027 C 
ATOM     11  C   UNL     1      34.006  -7.225 -23.140  0.00  0.00    +0.011 C 
ATOM     12  C   UNL     1      33.888  -8.662 -23.573  0.00  0.00    -0.025 C 
ATOM     13  C   UNL     1      31.377 -10.358 -20.480  0.00  0.00    +0.172 C 
ATOM     14  C   UNL     1      32.758  -8.278 -20.449  0.00  0.00    -0.030 C 
ATOM     15  C   UNL     1      32.650 -10.734 -23.389  0.00  0.00    +0.168 C 
ATOM     16  C   UNL     1      32.495  -9.498 -19.954  0.00  0.00    +0.002 C 
ATOM     17  C   UNL     1      30.689  -5.189 -22.761  0.00  0.00    -0.045 C 
ATOM     18  C   UNL     1      34.916  -9.369 -24.199  0.00  0.00    -0.001 C 
ATOM     19  C   UNL     1      33.647 -11.453 -24.011  0.00  0.00    +0.172 C 
ATOM     20  C   UNL     1      34.784 -10.753 -24.433  0.00  0.00    +0.040 C 
ENDROOT
BRANCH  13  21
ATOM     21  O   UNL     1      31.680 -11.726 -20.224  0.00  0.00    -0.377 OA
ATOM     22  H   UNL     1      30.960 -12.284 -20.555  0.00  0.00    +0.211 HD
ENDBRANCH  13  21
BRANCH  19  23
ATOM     23  O   UNL     1      33.555 -12.794 -24.181  0.00  0.00    -0.468 OA
ATOM     24  C   UNL     1      34.065 -13.623 -23.134  0.00  0.00    +0.253 C 
ENDBRANCH  19  23
TORSDOF 2
ENDMDL
