MODEL 1
REMARK VINA RESULT:      -9.9      0.000      0.000
REMARK  Name = 466151
REMARK  6 active torsions:
REMARK  status: ('A' for Active; 'I' for Inactive)
REMARK    1  A    between atoms: S_1  and  N_5
REMARK    2  A    between atoms: S_1  and  C_18
REMARK    3  A    between atoms: C_7  and  C_14
REMARK    4  A    between atoms: N_13  and  O_16
REMARK    5  A    between atoms: C_23  and  O_24
REMARK    6  A    between atoms: O_24  and  C_26
REMARK                            x       y       z     vdW  Elec       q    Type
REMARK                         _______ _______ _______ _____ _____    ______ ____
ROOT
ATOM      1  S   UNL     1      33.764 -24.314 -13.998  0.00  0.00    +0.064 S 
ATOM      2  O   UNL     1      33.746 -23.230 -13.040  0.00  0.00    -0.153 OA
ATOM      3  O   UNL     1      32.914 -25.473 -13.830  0.00  0.00    -0.153 OA
ENDROOT
BRANCH   1   5
ATOM      4  S   UNL     1      38.295 -26.080 -14.330  0.00  0.00    -0.139 S 
ATOM      5  N   UNL     1      35.383 -24.841 -14.213  0.00  0.00    -0.146 NA
ATOM      6  C   UNL     1      37.827 -24.380 -13.792  0.00  0.00    +0.063 C 
ATOM      7  C   UNL     1      36.386 -24.323 -13.233  0.00  0.00    +0.166 C 
ATOM      8  C   UNL     1      35.550 -26.270 -14.603  0.00  0.00    +0.108 C 
ATOM      9  C   UNL     1      36.852 -26.479 -15.355  0.00  0.00    +0.077 C 
ATOM     10  C   UNL     1      37.974 -23.423 -14.993  0.00  0.00    +0.013 C 
ATOM     11  C   UNL     1      38.849 -23.952 -12.721  0.00  0.00    +0.013 C 
BRANCH   7  14
ATOM     12  O   UNL     1      36.607 -26.176 -11.750  0.00  0.00    -0.271 OA
ATOM     13  N   UNL     1      35.516 -24.281 -11.002  0.00  0.00    -0.196 N 
ATOM     14  C   UNL     1      36.186 -25.035 -11.929  0.00  0.00    +0.261 C 
ATOM     15  H   UNL     1      35.200 -23.369 -11.199  0.00  0.00    +0.182 HD
BRANCH  13  16
ATOM     16  O   UNL     1      35.307 -24.889  -9.756  0.00  0.00    -0.295 OA
ATOM     17  H   UNL     1      35.650 -25.797  -9.778  0.00  0.00    +0.241 HD
ENDBRANCH  13  16
ENDBRANCH   7  14
ENDBRANCH   1   5
BRANCH   1  18
ATOM     18  C   UNL     1      33.449 -23.634 -15.595  0.00  0.00    +0.122 C 
ATOM     19  C   UNL     1      34.512 -23.368 -16.441  0.00  0.00    +0.023 C 
ATOM     20  C   UNL     1      32.142 -23.377 -15.976  0.00  0.00    +0.023 C 
ATOM     21  C   UNL     1      34.263 -22.829 -17.704  0.00  0.00    +0.039 C 
ATOM     22  C   UNL     1      31.893 -22.839 -17.239  0.00  0.00    +0.039 C 
ATOM     23  C   UNL     1      32.953 -22.566 -18.102  0.00  0.00    +0.145 C 
BRANCH  23  24
ATOM     24  O   UNL     1      32.710 -22.041 -19.335  0.00  0.00    -0.453 OA
BRANCH  24  26
ATOM     25  N   UNL     1      35.426 -19.273 -20.829  0.00  0.00    -0.242 NA
ATOM     26  C   UNL     1      33.614 -21.118 -19.832  0.00  0.00    +0.148 C 
ATOM     27  C   UNL     1      33.144 -19.983 -20.457  0.00  0.00    +0.058 C 
ATOM     28  C   UNL     1      34.965 -21.356 -19.692  0.00  0.00    +0.058 C 
ATOM     29  C   UNL     1      34.090 -19.091 -20.938  0.00  0.00    +0.102 C 
ATOM     30  C   UNL     1      35.829 -20.405 -20.207  0.00  0.00    +0.102 C 
ENDBRANCH  24  26
ENDBRANCH  23  24
ENDBRANCH   1  18
TORSDOF 6
ENDMDL
MODEL 2
REMARK VINA RESULT:      -9.5      1.540      1.959
REMARK  Name = 466151
REMARK  6 active torsions:
REMARK  status: ('A' for Active; 'I' for Inactive)
REMARK    1  A    between atoms: S_1  and  N_5
REMARK    2  A    between atoms: S_1  and  C_18
REMARK    3  A    between atoms: C_7  and  C_14
REMARK    4  A    between atoms: N_13  and  O_16
REMARK    5  A    between atoms: C_23  and  O_24
REMARK    6  A    between atoms: O_24  and  C_26
REMARK                            x       y       z     vdW  Elec       q    Type
REMARK                         _______ _______ _______ _____ _____    ______ ____
ROOT
ATOM      1  S   UNL     1      35.156 -23.317 -14.859  0.00  0.00    +0.064 S 
ATOM      2  O   UNL     1      35.617 -22.249 -13.998  0.00  0.00    -0.153 OA
ATOM      3  O   UNL     1      33.844 -23.902 -14.685  0.00  0.00    -0.153 OA
ENDROOT
BRANCH   1   5
ATOM      4  S   UNL     1      38.291 -27.037 -14.574  0.00  0.00    -0.139 S 
ATOM      5  N   UNL     1      36.326 -24.571 -14.867  0.00  0.00    -0.146 NA
ATOM      6  C   UNL     1      38.692 -25.256 -14.323  0.00  0.00    +0.063 C 
ATOM      7  C   UNL     1      37.453 -24.436 -13.894  0.00  0.00    +0.166 C 
ATOM      8  C   UNL     1      35.790 -25.952 -15.036  0.00  0.00    +0.108 C 
ATOM      9  C   UNL     1      36.835 -26.870 -15.644  0.00  0.00    +0.077 C 
ATOM     10  C   UNL     1      39.281 -24.691 -15.631  0.00  0.00    +0.013 C 
ATOM     11  C   UNL     1      39.792 -25.192 -13.245  0.00  0.00    +0.013 C 
BRANCH   7  14
ATOM     12  O   UNL     1      36.517 -25.866 -12.232  0.00  0.00    -0.271 OA
ATOM     13  N   UNL     1      36.991 -23.675 -11.670  0.00  0.00    -0.196 N 
ATOM     14  C   UNL     1      36.934 -24.746 -12.522  0.00  0.00    +0.261 C 
ATOM     15  H   UNL     1      37.335 -22.797 -11.956  0.00  0.00    +0.182 HD
BRANCH  13  16
ATOM     16  O   UNL     1      36.529 -23.906 -10.367  0.00  0.00    -0.295 OA
ATOM     17  H   UNL     1      37.113 -24.543  -9.925  0.00  0.00    +0.241 HD
ENDBRANCH  13  16
ENDBRANCH   7  14
ENDBRANCH   1   5
BRANCH   1  18
ATOM     18  C   UNL     1      35.289 -22.763 -16.528  0.00  0.00    +0.122 C 
ATOM     19  C   UNL     1      36.455 -22.146 -16.948  0.00  0.00    +0.023 C 
ATOM     20  C   UNL     1      34.223 -22.955 -17.393  0.00  0.00    +0.023 C 
ATOM     21  C   UNL     1      36.560 -21.708 -18.269  0.00  0.00    +0.039 C 
ATOM     22  C   UNL     1      34.328 -22.516 -18.714  0.00  0.00    +0.039 C 
ATOM     23  C   UNL     1      35.497 -21.894 -19.151  0.00  0.00    +0.145 C 
BRANCH  23  24
ATOM     24  O   UNL     1      35.600 -21.467 -20.440  0.00  0.00    -0.453 OA
BRANCH  24  26
ATOM     25  N   UNL     1      34.350 -17.599 -21.304  0.00  0.00    -0.242 NA
ATOM     26  C   UNL     1      35.183 -20.178 -20.726  0.00  0.00    +0.148 C 
ATOM     27  C   UNL     1      33.833 -19.908 -20.808  0.00  0.00    +0.058 C 
ATOM     28  C   UNL     1      36.127 -19.194 -20.927  0.00  0.00    +0.058 C 
ATOM     29  C   UNL     1      33.468 -18.604 -21.099  0.00  0.00    +0.102 C 
ATOM     30  C   UNL     1      35.660 -17.922 -21.213  0.00  0.00    +0.102 C 
ENDBRANCH  24  26
ENDBRANCH  23  24
ENDBRANCH   1  18
TORSDOF 6
ENDMDL
MODEL 3
REMARK VINA RESULT:      -7.9      4.650     10.303
REMARK  Name = 466151
REMARK  6 active torsions:
REMARK  status: ('A' for Active; 'I' for Inactive)
REMARK    1  A    between atoms: S_1  and  N_5
REMARK    2  A    between atoms: S_1  and  C_18
REMARK    3  A    between atoms: C_7  and  C_14
REMARK    4  A    between atoms: N_13  and  O_16
REMARK    5  A    between atoms: C_23  and  O_24
REMARK    6  A    between atoms: O_24  and  C_26
REMARK                            x       y       z     vdW  Elec       q    Type
REMARK                         _______ _______ _______ _____ _____    ______ ____
ROOT
ATOM      1  S   UNL     1      35.454 -18.868 -22.276  0.00  0.00    +0.064 S 
ATOM      2  O   UNL     1      36.834 -18.438 -22.207  0.00  0.00    -0.153 OA
ATOM      3  O   UNL     1      34.911 -19.442 -23.488  0.00  0.00    -0.153 OA
ENDROOT
BRANCH   1   5
ATOM      4  S   UNL     1      32.389 -15.240 -21.184  0.00  0.00    -0.139 S 
ATOM      5  N   UNL     1      34.442 -17.579 -21.771  0.00  0.00    -0.146 NA
ATOM      6  C   UNL     1      34.215 -15.095 -21.395  0.00  0.00    +0.063 C 
ATOM      7  C   UNL     1      34.787 -16.220 -22.289  0.00  0.00    +0.166 C 
ATOM      8  C   UNL     1      32.985 -17.888 -21.711  0.00  0.00    +0.108 C 
ATOM      9  C   UNL     1      32.279 -16.989 -20.712  0.00  0.00    +0.077 C 
ATOM     10  C   UNL     1      34.878 -15.125 -20.003  0.00  0.00    +0.013 C 
ATOM     11  C   UNL     1      34.485 -13.711 -22.015  0.00  0.00    +0.013 C 
BRANCH   7  14
ATOM     12  O   UNL     1      33.381 -15.537 -24.087  0.00  0.00    -0.271 OA
ATOM     13  N   UNL     1      35.252 -16.806 -24.564  0.00  0.00    -0.196 N 
ATOM     14  C   UNL     1      34.387 -16.147 -23.732  0.00  0.00    +0.261 C 
ATOM     15  H   UNL     1      36.046 -17.281 -24.224  0.00  0.00    +0.182 HD
BRANCH  13  16
ATOM     16  O   UNL     1      34.936 -16.764 -25.929  0.00  0.00    -0.295 OA
ATOM     17  H   UNL     1      34.318 -16.036 -26.096  0.00  0.00    +0.241 HD
ENDBRANCH  13  16
ENDBRANCH   7  14
ENDBRANCH   1   5
BRANCH   1  18
ATOM     18  C   UNL     1      35.176 -20.010 -20.961  0.00  0.00    +0.122 C 
ATOM     19  C   UNL     1      33.877 -20.325 -20.599  0.00  0.00    +0.023 C 
ATOM     20  C   UNL     1      36.262 -20.575 -20.311  0.00  0.00    +0.023 C 
ATOM     21  C   UNL     1      33.656 -21.228 -19.558  0.00  0.00    +0.039 C 
ATOM     22  C   UNL     1      36.041 -21.478 -19.271  0.00  0.00    +0.039 C 
ATOM     23  C   UNL     1      34.739 -21.805 -18.895  0.00  0.00    +0.145 C 
BRANCH  23  24
ATOM     24  O   UNL     1      34.524 -22.686 -17.880  0.00  0.00    -0.453 OA
BRANCH  24  26
ATOM     25  N   UNL     1      37.235 -22.714 -14.732  0.00  0.00    -0.242 NA
ATOM     26  C   UNL     1      35.427 -22.694 -16.831  0.00  0.00    +0.148 C 
ATOM     27  C   UNL     1      36.710 -22.237 -17.043  0.00  0.00    +0.058 C 
ATOM     28  C   UNL     1      35.023 -23.161 -15.599  0.00  0.00    +0.058 C 
ATOM     29  C   UNL     1      37.576 -22.267 -15.962  0.00  0.00    +0.102 C 
ATOM     30  C   UNL     1      35.964 -23.151 -14.582  0.00  0.00    +0.102 C 
ENDBRANCH  24  26
ENDBRANCH  23  24
ENDBRANCH   1  18
TORSDOF 6
ENDMDL
MODEL 4
REMARK VINA RESULT:      -7.9      1.990      2.905
REMARK  Name = 466151
REMARK  6 active torsions:
REMARK  status: ('A' for Active; 'I' for Inactive)
REMARK    1  A    between atoms: S_1  and  N_5
REMARK    2  A    between atoms: S_1  and  C_18
REMARK    3  A    between atoms: C_7  and  C_14
REMARK    4  A    between atoms: N_13  and  O_16
REMARK    5  A    between atoms: C_23  and  O_24
REMARK    6  A    between atoms: O_24  and  C_26
REMARK                            x       y       z     vdW  Elec       q    Type
REMARK                         _______ _______ _______ _____ _____    ______ ____
ROOT
ATOM      1  S   UNL     1      33.754 -23.489 -16.356  0.00  0.00    +0.064 S 
ATOM      2  O   UNL     1      33.042 -22.557 -15.510  0.00  0.00    -0.153 OA
ATOM      3  O   UNL     1      33.066 -24.582 -17.009  0.00  0.00    -0.153 OA
ENDROOT
BRANCH   1   5
ATOM      4  S   UNL     1      37.306 -25.506 -13.697  0.00  0.00    -0.139 S 
ATOM      5  N   UNL     1      35.094 -24.118 -15.489  0.00  0.00    -0.146 NA
ATOM      6  C   UNL     1      36.807 -23.731 -13.678  0.00  0.00    +0.063 C 
ATOM      7  C   UNL     1      35.343 -23.534 -14.135  0.00  0.00    +0.166 C 
ATOM      8  C   UNL     1      35.298 -25.591 -15.596  0.00  0.00    +0.108 C 
ATOM      9  C   UNL     1      36.754 -25.956 -15.366  0.00  0.00    +0.077 C 
ATOM     10  C   UNL     1      37.765 -22.938 -14.590  0.00  0.00    +0.013 C 
ATOM     11  C   UNL     1      37.005 -23.226 -12.236  0.00  0.00    +0.013 C 
BRANCH   7  14
ATOM     12  O   UNL     1      34.373 -23.856 -11.982  0.00  0.00    -0.271 OA
ATOM     13  N   UNL     1      33.323 -24.782 -13.820  0.00  0.00    -0.196 N 
ATOM     14  C   UNL     1      34.309 -24.069 -13.191  0.00  0.00    +0.261 C 
ATOM     15  H   UNL     1      33.321 -24.924 -14.795  0.00  0.00    +0.182 HD
BRANCH  13  16
ATOM     16  O   UNL     1      32.319 -25.300 -12.990  0.00  0.00    -0.295 OA
ATOM     17  H   UNL     1      31.493 -24.815 -13.141  0.00  0.00    +0.241 HD
ENDBRANCH  13  16
ENDBRANCH   7  14
ENDBRANCH   1   5
BRANCH   1  18
ATOM     18  C   UNL     1      34.600 -22.560 -17.595  0.00  0.00    +0.122 C 
ATOM     19  C   UNL     1      33.914 -22.157 -18.728  0.00  0.00    +0.023 C 
ATOM     20  C   UNL     1      35.938 -22.248 -17.413  0.00  0.00    +0.023 C 
ATOM     21  C   UNL     1      34.583 -21.421 -19.707  0.00  0.00    +0.039 C 
ATOM     22  C   UNL     1      36.607 -21.513 -18.393  0.00  0.00    +0.039 C 
ATOM     23  C   UNL     1      35.929 -21.100 -19.539  0.00  0.00    +0.145 C 
BRANCH  23  24
ATOM     24  O   UNL     1      36.582 -20.382 -20.494  0.00  0.00    -0.453 OA
BRANCH  24  26
ATOM     25  N   UNL     1      34.429 -17.476 -22.540  0.00  0.00    -0.242 NA
ATOM     26  C   UNL     1      35.863 -19.415 -21.176  0.00  0.00    +0.148 C 
ATOM     27  C   UNL     1      35.274 -19.736 -22.380  0.00  0.00    +0.058 C 
ATOM     28  C   UNL     1      35.756 -18.151 -20.636  0.00  0.00    +0.058 C 
ATOM     29  C   UNL     1      34.567 -18.732 -23.023  0.00  0.00    +0.102 C 
ATOM     30  C   UNL     1      35.029 -17.218 -21.356  0.00  0.00    +0.102 C 
ENDBRANCH  24  26
ENDBRANCH  23  24
ENDBRANCH   1  18
TORSDOF 6
ENDMDL
MODEL 5
REMARK VINA RESULT:      -7.9      2.094      3.134
REMARK  Name = 466151
REMARK  6 active torsions:
REMARK  status: ('A' for Active; 'I' for Inactive)
REMARK    1  A    between atoms: S_1  and  N_5
REMARK    2  A    between atoms: S_1  and  C_18
REMARK    3  A    between atoms: C_7  and  C_14
REMARK    4  A    between atoms: N_13  and  O_16
REMARK    5  A    between atoms: C_23  and  O_24
REMARK    6  A    between atoms: O_24  and  C_26
REMARK                            x       y       z     vdW  Elec       q    Type
REMARK                         _______ _______ _______ _____ _____    ______ ____
ROOT
ATOM      1  S   UNL     1      33.910 -23.761 -14.991  0.00  0.00    +0.064 S 
ATOM      2  O   UNL     1      32.981 -22.800 -14.436  0.00  0.00    -0.153 OA
ATOM      3  O   UNL     1      33.498 -25.118 -15.279  0.00  0.00    -0.153 OA
ENDROOT
BRANCH   1   5
ATOM      4  S   UNL     1      38.122 -23.923 -12.544  0.00  0.00    -0.139 S 
ATOM      5  N   UNL     1      35.319 -23.804 -14.014  0.00  0.00    -0.146 NA
ATOM      6  C   UNL     1      36.748 -25.147 -12.427  0.00  0.00    +0.063 C 
ATOM      7  C   UNL     1      35.869 -25.158 -13.700  0.00  0.00    +0.166 C 
ATOM      8  C   UNL     1      36.335 -22.752 -14.300  0.00  0.00    +0.108 C 
ATOM      9  C   UNL     1      37.181 -22.464 -13.072  0.00  0.00    +0.077 C 
ATOM     10  C   UNL     1      35.893 -24.814 -11.188  0.00  0.00    +0.013 C 
ATOM     11  C   UNL     1      37.395 -26.526 -12.196  0.00  0.00    +0.013 C 
BRANCH   7  14
ATOM     12  O   UNL     1      37.508 -25.119 -15.430  0.00  0.00    -0.271 OA
ATOM     13  N   UNL     1      35.978 -26.851 -15.391  0.00  0.00    -0.196 N 
ATOM     14  C   UNL     1      36.543 -25.692 -14.928  0.00  0.00    +0.261 C 
ATOM     15  H   UNL     1      35.202 -27.267 -14.949  0.00  0.00    +0.182 HD
BRANCH  13  16
ATOM     16  O   UNL     1      36.572 -27.406 -16.533  0.00  0.00    -0.295 OA
ATOM     17  H   UNL     1      36.117 -27.079 -17.325  0.00  0.00    +0.241 HD
ENDBRANCH  13  16
ENDBRANCH   7  14
ENDBRANCH   1   5
BRANCH   1  18
ATOM     18  C   UNL     1      34.584 -23.071 -16.469  0.00  0.00    +0.122 C 
ATOM     19  C   UNL     1      33.840 -23.111 -17.637  0.00  0.00    +0.023 C 
ATOM     20  C   UNL     1      35.846 -22.501 -16.437  0.00  0.00    +0.023 C 
ATOM     21  C   UNL     1      34.373 -22.566 -18.806  0.00  0.00    +0.039 C 
ATOM     22  C   UNL     1      36.379 -21.955 -17.606  0.00  0.00    +0.039 C 
ATOM     23  C   UNL     1      35.642 -21.988 -18.789  0.00  0.00    +0.145 C 
BRANCH  23  24
ATOM     24  O   UNL     1      36.161 -21.456 -19.930  0.00  0.00    -0.453 OA
BRANCH  24  26
ATOM     25  N   UNL     1      34.383 -18.022 -21.449  0.00  0.00    -0.242 NA
ATOM     26  C   UNL     1      35.568 -20.311 -20.435  0.00  0.00    +0.148 C 
ATOM     27  C   UNL     1      34.197 -20.263 -20.562  0.00  0.00    +0.058 C 
ATOM     28  C   UNL     1      36.363 -19.246 -20.801  0.00  0.00    +0.058 C 
ATOM     29  C   UNL     1      33.652 -19.096 -21.074  0.00  0.00    +0.102 C 
ATOM     30  C   UNL     1      35.723 -18.125 -21.303  0.00  0.00    +0.102 C 
ENDBRANCH  24  26
ENDBRANCH  23  24
ENDBRANCH   1  18
TORSDOF 6
ENDMDL
MODEL 6
REMARK VINA RESULT:      -7.6      3.568      5.104
REMARK  Name = 466151
REMARK  6 active torsions:
REMARK  status: ('A' for Active; 'I' for Inactive)
REMARK    1  A    between atoms: S_1  and  N_5
REMARK    2  A    between atoms: S_1  and  C_18
REMARK    3  A    between atoms: C_7  and  C_14
REMARK    4  A    between atoms: N_13  and  O_16
REMARK    5  A    between atoms: C_23  and  O_24
REMARK    6  A    between atoms: O_24  and  C_26
REMARK                            x       y       z     vdW  Elec       q    Type
REMARK                         _______ _______ _______ _____ _____    ______ ____
ROOT
ATOM      1  S   UNL     1      35.550 -24.325 -15.864  0.00  0.00    +0.064 S 
ATOM      2  O   UNL     1      35.603 -25.719 -16.247  0.00  0.00    -0.153 OA
ATOM      3  O   UNL     1      36.009 -23.286 -16.760  0.00  0.00    -0.153 OA
ENDROOT
BRANCH   1   5
ATOM      4  S   UNL     1      38.111 -23.799 -11.750  0.00  0.00    -0.139 S 
ATOM      5  N   UNL     1      36.331 -24.134 -14.348  0.00  0.00    -0.146 NA
ATOM      6  C   UNL     1      36.996 -25.207 -12.164  0.00  0.00    +0.063 C 
ATOM      7  C   UNL     1      36.824 -25.383 -13.691  0.00  0.00    +0.166 C 
ATOM      8  C   UNL     1      37.232 -22.952 -14.231  0.00  0.00    +0.108 C 
ATOM      9  C   UNL     1      37.364 -22.509 -12.785  0.00  0.00    +0.077 C 
ATOM     10  C   UNL     1      35.627 -24.968 -11.495  0.00  0.00    +0.013 C 
ATOM     11  C   UNL     1      37.615 -26.469 -11.534  0.00  0.00    +0.013 C 
BRANCH   7  14
ATOM     12  O   UNL     1      38.319 -27.041 -14.525  0.00  0.00    -0.271 OA
ATOM     13  N   UNL     1      38.795 -24.816 -14.928  0.00  0.00    -0.196 N 
ATOM     14  C   UNL     1      38.051 -25.846 -14.416  0.00  0.00    +0.261 C 
ATOM     15  H   UNL     1      38.533 -23.873 -14.811  0.00  0.00    +0.182 HD
BRANCH  13  16
ATOM     16  O   UNL     1      39.952 -25.187 -15.628  0.00  0.00    -0.295 OA
ATOM     17  H   UNL     1      40.735 -24.946 -15.109  0.00  0.00    +0.241 HD
ENDBRANCH  13  16
ENDBRANCH   7  14
ENDBRANCH   1   5
BRANCH   1  18
ATOM     18  C   UNL     1      33.889 -23.952 -15.402  0.00  0.00    +0.122 C 
ATOM     19  C   UNL     1      33.414 -24.379 -14.173  0.00  0.00    +0.023 C 
ATOM     20  C   UNL     1      33.086 -23.237 -16.276  0.00  0.00    +0.023 C 
ATOM     21  C   UNL     1      32.099 -24.085 -13.808  0.00  0.00    +0.039 C 
ATOM     22  C   UNL     1      31.772 -22.942 -15.911  0.00  0.00    +0.039 C 
ATOM     23  C   UNL     1      31.280 -23.366 -14.677  0.00  0.00    +0.145 C 
BRANCH  23  24
ATOM     24  O   UNL     1      29.998 -23.078 -14.320  0.00  0.00    -0.453 OA
BRANCH  24  26
ATOM     25  N   UNL     1      27.121 -23.023 -17.318  0.00  0.00    -0.242 NA
ATOM     26  C   UNL     1      29.040 -23.058 -15.320  0.00  0.00    +0.148 C 
ATOM     27  C   UNL     1      28.160 -22.000 -15.390  0.00  0.00    +0.058 C 
ATOM     28  C   UNL     1      28.987 -24.100 -16.222  0.00  0.00    +0.058 C 
ATOM     29  C   UNL     1      27.220 -22.029 -16.407  0.00  0.00    +0.102 C 
ATOM     30  C   UNL     1      28.010 -24.036 -17.201  0.00  0.00    +0.102 C 
ENDBRANCH  24  26
ENDBRANCH  23  24
ENDBRANCH   1  18
TORSDOF 6
ENDMDL
MODEL 7
REMARK VINA RESULT:      -7.6      4.639     10.120
REMARK  Name = 466151
REMARK  6 active torsions:
REMARK  status: ('A' for Active; 'I' for Inactive)
REMARK    1  A    between atoms: S_1  and  N_5
REMARK    2  A    between atoms: S_1  and  C_18
REMARK    3  A    between atoms: C_7  and  C_14
REMARK    4  A    between atoms: N_13  and  O_16
REMARK    5  A    between atoms: C_23  and  O_24
REMARK    6  A    between atoms: O_24  and  C_26
REMARK                            x       y       z     vdW  Elec       q    Type
REMARK                         _______ _______ _______ _____ _____    ______ ____
ROOT
ATOM      1  S   UNL     1      35.559 -18.999 -22.275  0.00  0.00    +0.064 S 
ATOM      2  O   UNL     1      36.901 -18.467 -22.367  0.00  0.00    -0.153 OA
ATOM      3  O   UNL     1      34.937 -19.655 -23.404  0.00  0.00    -0.153 OA
ENDROOT
BRANCH   1   5
ATOM      4  S   UNL     1      32.385 -15.530 -20.992  0.00  0.00    -0.139 S 
ATOM      5  N   UNL     1      34.509 -17.768 -21.703  0.00  0.00    -0.146 NA
ATOM      6  C   UNL     1      34.201 -15.312 -21.219  0.00  0.00    +0.063 C 
ATOM      7  C   UNL     1      34.800 -16.377 -22.167  0.00  0.00    +0.166 C 
ATOM      8  C   UNL     1      33.065 -18.131 -21.638  0.00  0.00    +0.108 C 
ATOM      9  C   UNL     1      32.342 -17.300 -20.593  0.00  0.00    +0.077 C 
ATOM     10  C   UNL     1      34.884 -15.378 -19.838  0.00  0.00    +0.013 C 
ATOM     11  C   UNL     1      34.415 -13.894 -21.783  0.00  0.00    +0.013 C 
BRANCH   7  14
ATOM     12  O   UNL     1      33.365 -15.638 -23.920  0.00  0.00    -0.271 OA
ATOM     13  N   UNL     1      35.231 -16.888 -24.466  0.00  0.00    -0.196 N 
ATOM     14  C   UNL     1      34.377 -16.257 -23.600  0.00  0.00    +0.261 C 
ATOM     15  H   UNL     1      36.030 -17.372 -24.154  0.00  0.00    +0.182 HD
BRANCH  13  16
ATOM     16  O   UNL     1      34.894 -16.802 -25.825  0.00  0.00    -0.295 OA
ATOM     17  H   UNL     1      35.363 -17.493 -26.318  0.00  0.00    +0.241 HD
ENDBRANCH  13  16
ENDBRANCH   7  14
ENDBRANCH   1   5
BRANCH   1  18
ATOM     18  C   UNL     1      35.507 -20.107 -20.904  0.00  0.00    +0.122 C 
ATOM     19  C   UNL     1      36.665 -20.350 -20.184  0.00  0.00    +0.023 C 
ATOM     20  C   UNL     1      34.309 -20.717 -20.569  0.00  0.00    +0.023 C 
ATOM     21  C   UNL     1      36.625 -21.228 -19.099  0.00  0.00    +0.039 C 
ATOM     22  C   UNL     1      34.269 -21.594 -19.484  0.00  0.00    +0.039 C 
ATOM     23  C   UNL     1      35.426 -21.848 -18.750  0.00  0.00    +0.145 C 
BRANCH  23  24
ATOM     24  O   UNL     1      35.387 -22.704 -17.691  0.00  0.00    -0.453 OA
BRANCH  24  26
ATOM     25  N   UNL     1      31.757 -23.179 -15.726  0.00  0.00    -0.242 NA
ATOM     26  C   UNL     1      34.177 -22.864 -17.037  0.00  0.00    +0.148 C 
ATOM     27  C   UNL     1      33.007 -22.823 -17.764  0.00  0.00    +0.058 C 
ATOM     28  C   UNL     1      34.170 -23.057 -15.672  0.00  0.00    +0.058 C 
ATOM     29  C   UNL     1      31.823 -22.987 -17.063  0.00  0.00    +0.102 C 
ATOM     30  C   UNL     1      32.935 -23.209 -15.063  0.00  0.00    +0.102 C 
ENDBRANCH  24  26
ENDBRANCH  23  24
ENDBRANCH   1  18
TORSDOF 6
ENDMDL
MODEL 8
REMARK VINA RESULT:      -7.2     11.023     15.124
REMARK  Name = 466151
REMARK  6 active torsions:
REMARK  status: ('A' for Active; 'I' for Inactive)
REMARK    1  A    between atoms: S_1  and  N_5
REMARK    2  A    between atoms: S_1  and  C_18
REMARK    3  A    between atoms: C_7  and  C_14
REMARK    4  A    between atoms: N_13  and  O_16
REMARK    5  A    between atoms: C_23  and  O_24
REMARK    6  A    between atoms: O_24  and  C_26
REMARK                            x       y       z     vdW  Elec       q    Type
REMARK                         _______ _______ _______ _____ _____    ______ ____
ROOT
ATOM      1  S   UNL     1      31.607 -11.333 -21.527  0.00  0.00    +0.064 S 
ATOM      2  O   UNL     1      30.170 -11.453 -21.655  0.00  0.00    -0.153 OA
ATOM      3  O   UNL     1      32.249 -11.401 -20.232  0.00  0.00    -0.153 OA
ENDROOT
BRANCH   1   5
ATOM      4  S   UNL     1      33.301  -7.207 -23.490  0.00  0.00    -0.139 S 
ATOM      5  N   UNL     1      32.120  -9.905 -22.326  0.00  0.00    -0.146 NA
ATOM      6  C   UNL     1      31.559  -7.536 -22.985  0.00  0.00    +0.063 C 
ATOM      7  C   UNL     1      31.466  -8.631 -21.897  0.00  0.00    +0.166 C 
ATOM      8  C   UNL     1      33.582  -9.810 -22.603  0.00  0.00    +0.108 C 
ATOM      9  C   UNL     1      33.853  -8.909 -23.794  0.00  0.00    +0.077 C 
ATOM     10  C   UNL     1      30.752  -7.949 -24.233  0.00  0.00    +0.013 C 
ATOM     11  C   UNL     1      30.982  -6.203 -22.472  0.00  0.00    +0.013 C 
BRANCH   7  14
ATOM     12  O   UNL     1      31.537  -8.677 -19.516  0.00  0.00    -0.271 OA
ATOM     13  N   UNL     1      33.085  -7.387 -20.646  0.00  0.00    -0.196 N 
ATOM     14  C   UNL     1      32.018  -8.242 -20.559  0.00  0.00    +0.261 C 
ATOM     15  H   UNL     1      33.431  -7.068 -21.512  0.00  0.00    +0.182 HD
BRANCH  13  16
ATOM     16  O   UNL     1      33.654  -6.994 -19.427  0.00  0.00    -0.295 OA
ATOM     17  H   UNL     1      34.038  -7.768 -18.985  0.00  0.00    +0.241 HD
ENDBRANCH  13  16
ENDBRANCH   7  14
ENDBRANCH   1   5
BRANCH   1  18
ATOM     18  C   UNL     1      32.347 -12.550 -22.568  0.00  0.00    +0.122 C 
ATOM     19  C   UNL     1      32.833 -12.176 -23.809  0.00  0.00    +0.023 C 
ATOM     20  C   UNL     1      32.432 -13.860 -22.125  0.00  0.00    +0.023 C 
ATOM     21  C   UNL     1      33.419 -13.139 -24.633  0.00  0.00    +0.039 C 
ATOM     22  C   UNL     1      33.018 -14.823 -22.949  0.00  0.00    +0.039 C 
ATOM     23  C   UNL     1      33.511 -14.461 -24.202  0.00  0.00    +0.145 C 
BRANCH  23  24
ATOM     24  O   UNL     1      34.083 -15.400 -25.005  0.00  0.00    -0.453 OA
BRANCH  24  26
ATOM     25  N   UNL     1      35.355 -18.942 -23.243  0.00  0.00    -0.242 NA
ATOM     26  C   UNL     1      34.506 -16.580 -24.417  0.00  0.00    +0.148 C 
ATOM     27  C   UNL     1      35.248 -16.526 -23.256  0.00  0.00    +0.058 C 
ATOM     28  C   UNL     1      34.178 -17.782 -25.007  0.00  0.00    +0.058 C 
ATOM     29  C   UNL     1      35.648 -17.735 -22.708  0.00  0.00    +0.102 C 
ATOM     30  C   UNL     1      34.626 -18.934 -24.382  0.00  0.00    +0.102 C 
ENDBRANCH  24  26
ENDBRANCH  23  24
ENDBRANCH   1  18
TORSDOF 6
ENDMDL
MODEL 9
REMARK VINA RESULT:      -7.2      9.956     14.282
REMARK  Name = 466151
REMARK  6 active torsions:
REMARK  status: ('A' for Active; 'I' for Inactive)
REMARK    1  A    between atoms: S_1  and  N_5
REMARK    2  A    between atoms: S_1  and  C_18
REMARK    3  A    between atoms: C_7  and  C_14
REMARK    4  A    between atoms: N_13  and  O_16
REMARK    5  A    between atoms: C_23  and  O_24
REMARK    6  A    between atoms: O_24  and  C_26
REMARK                            x       y       z     vdW  Elec       q    Type
REMARK                         _______ _______ _______ _____ _____    ______ ____
ROOT
ATOM      1  S   UNL     1      33.070 -13.404 -24.009  0.00  0.00    +0.064 S 
ATOM      2  O   UNL     1      31.839 -13.961 -24.526  0.00  0.00    -0.153 OA
ATOM      3  O   UNL     1      34.216 -13.202 -24.869  0.00  0.00    -0.153 OA
ENDROOT
BRANCH   1   5
ATOM      4  S   UNL     1      34.804 -16.035 -20.291  0.00  0.00    -0.139 S 
ATOM      5  N   UNL     1      33.559 -14.309 -22.637  0.00  0.00    -0.146 NA
ATOM      6  C   UNL     1      33.361 -16.471 -21.352  0.00  0.00    +0.063 C 
ATOM      7  C   UNL     1      33.436 -15.795 -22.741  0.00  0.00    +0.166 C 
ATOM      8  C   UNL     1      34.783 -13.817 -21.942  0.00  0.00    +0.108 C 
ATOM      9  C   UNL     1      34.782 -14.230 -20.481  0.00  0.00    +0.077 C 
ATOM     10  C   UNL     1      32.066 -16.056 -20.623  0.00  0.00    +0.013 C 
ATOM     11  C   UNL     1      33.353 -18.006 -21.488  0.00  0.00    +0.013 C 
BRANCH   7  14
ATOM     12  O   UNL     1      35.659 -16.524 -23.196  0.00  0.00    -0.271 OA
ATOM     13  N   UNL     1      34.130 -16.481 -24.928  0.00  0.00    -0.196 N 
ATOM     14  C   UNL     1      34.532 -16.300 -23.631  0.00  0.00    +0.261 C 
ATOM     15  H   UNL     1      33.211 -16.284 -25.224  0.00  0.00    +0.182 HD
BRANCH  13  16
ATOM     16  O   UNL     1      35.109 -16.963 -25.808  0.00  0.00    -0.295 OA
ATOM     17  H   UNL     1      35.989 -16.727 -25.474  0.00  0.00    +0.241 HD
ENDBRANCH  13  16
ENDBRANCH   7  14
ENDBRANCH   1   5
BRANCH   1  18
ATOM     18  C   UNL     1      32.687 -11.863 -23.240  0.00  0.00    +0.122 C 
ATOM     19  C   UNL     1      31.726 -11.822 -22.244  0.00  0.00    +0.023 C 
ATOM     20  C   UNL     1      33.356 -10.719 -23.645  0.00  0.00    +0.023 C 
ATOM     21  C   UNL     1      31.423 -10.603 -21.636  0.00  0.00    +0.039 C 
ATOM     22  C   UNL     1      33.053  -9.500 -23.036  0.00  0.00    +0.039 C 
ATOM     23  C   UNL     1      32.087  -9.443 -22.032  0.00  0.00    +0.145 C 
BRANCH  23  24
ATOM     24  O   UNL     1      31.792  -8.254 -21.438  0.00  0.00    -0.453 OA
BRANCH  24  26
ATOM     25  N   UNL     1      31.026  -4.999 -23.904  0.00  0.00    -0.242 NA
ATOM     26  C   UNL     1      31.535  -7.170 -22.260  0.00  0.00    +0.148 C 
ATOM     27  C   UNL     1      31.006  -7.385 -23.514  0.00  0.00    +0.058 C 
ATOM     28  C   UNL     1      31.817  -5.899 -21.805  0.00  0.00    +0.058 C 
ATOM     29  C   UNL     1      30.769  -6.267 -24.298  0.00  0.00    +0.102 C 
ATOM     30  C   UNL     1      31.545  -4.848 -22.665  0.00  0.00    +0.102 C 
ENDBRANCH  24  26
ENDBRANCH  23  24
ENDBRANCH   1  18
TORSDOF 6
ENDMDL
