MODEL 1
REMARK VINA RESULT:      -7.1      0.000      0.000
REMARK  Name = 2084
REMARK  6 active torsions:
REMARK  status: ('A' for Active; 'I' for Inactive)
REMARK    1  A    between atoms: C_2  and  C_12
REMARK    2  A    between atoms: C_3  and  O_8
REMARK    3  A    between atoms: O_8  and  C_9
REMARK    4  A    between atoms: C_9  and  C_10
REMARK    5  A    between atoms: C_12  and  C_14
REMARK    6  A    between atoms: C_14  and  O_15
REMARK                            x       y       z     vdW  Elec       q    Type
REMARK                         _______ _______ _______ _____ _____    ______ ____
ROOT
ATOM      1 CL   UNL     1      34.580 -17.880 -25.328  0.00  0.00    -0.079 Cl
ATOM      2  C   UNL     1      34.749 -19.009 -21.500  0.00  0.00    -0.010 C 
ATOM      3  C   UNL     1      34.932 -16.626 -22.941  0.00  0.00    +0.149 C 
ATOM      4  C   UNL     1      34.635 -19.024 -22.890  0.00  0.00    +0.011 C 
ATOM      5  C   UNL     1      34.956 -17.802 -20.830  0.00  0.00    -0.001 C 
ATOM      6  C   UNL     1      34.726 -17.832 -23.609  0.00  0.00    +0.091 C 
ATOM      7  C   UNL     1      35.047 -16.611 -21.550  0.00  0.00    +0.037 C 
ENDROOT
BRANCH   3   8
ATOM      8  O   UNL     1      35.027 -15.448 -23.620  0.00  0.00    -0.475 OA
BRANCH   8   9
ATOM      9  C   UNL     1      34.341 -14.326 -23.070  0.00  0.00    +0.205 C 
BRANCH   9  10
ATOM     10  C   UNL     1      33.646 -13.575 -24.194  0.00  0.00    +0.047 C 
ATOM     11  C   UNL     1      33.106 -14.519 -25.255  0.00  0.00    +0.004 C 
ENDBRANCH   9  10
ENDBRANCH   8   9
ENDBRANCH   3   8
BRANCH   2  12
ATOM     12  C   UNL     1      34.653 -20.281 -20.729  0.00  0.00    +0.136 C 
BRANCH  12  14
ATOM     13  O   UNL     1      32.296 -19.835 -20.305  0.00  0.00    -0.250 OA
ATOM     14  C   UNL     1      33.242 -20.611 -20.281  0.00  0.00    +0.318 C 
BRANCH  14  15
ATOM     15  O   UNL     1      33.137 -21.891 -19.839  0.00  0.00    -0.480 OA
ATOM     16  H   UNL     1      33.911 -22.386 -19.646  0.00  0.00    +0.295 HD
ENDBRANCH  14  15
ENDBRANCH  12  14
ENDBRANCH   2  12
TORSDOF 6
ENDMDL
MODEL 2
REMARK VINA RESULT:      -7.1      1.533      2.042
REMARK  Name = 2084
REMARK  6 active torsions:
REMARK  status: ('A' for Active; 'I' for Inactive)
REMARK    1  A    between atoms: C_2  and  C_12
REMARK    2  A    between atoms: C_3  and  O_8
REMARK    3  A    between atoms: O_8  and  C_9
REMARK    4  A    between atoms: C_9  and  C_10
REMARK    5  A    between atoms: C_12  and  C_14
REMARK    6  A    between atoms: C_14  and  O_15
REMARK                            x       y       z     vdW  Elec       q    Type
REMARK                         _______ _______ _______ _____ _____    ______ ____
ROOT
ATOM      1 CL   UNL     1      34.540 -15.018 -20.980  0.00  0.00    -0.079 Cl
ATOM      2  C   UNL     1      34.815 -18.962 -21.557  0.00  0.00    -0.010 C 
ATOM      3  C   UNL     1      34.829 -16.657 -23.130  0.00  0.00    +0.149 C 
ATOM      4  C   UNL     1      34.689 -17.708 -20.959  0.00  0.00    +0.011 C 
ATOM      5  C   UNL     1      34.948 -19.063 -22.943  0.00  0.00    -0.001 C 
ATOM      6  C   UNL     1      34.696 -16.556 -21.746  0.00  0.00    +0.091 C 
ATOM      7  C   UNL     1      34.955 -17.911 -23.729  0.00  0.00    +0.037 C 
ENDROOT
BRANCH   3   8
ATOM      8  O   UNL     1      34.836 -15.548 -23.923  0.00  0.00    -0.475 OA
BRANCH   8   9
ATOM      9  C   UNL     1      33.572 -15.053 -24.357  0.00  0.00    +0.205 C 
BRANCH   9  10
ATOM     10  C   UNL     1      33.404 -15.363 -25.835  0.00  0.00    +0.047 C 
ATOM     11  C   UNL     1      33.023 -14.128 -26.633  0.00  0.00    +0.004 C 
ENDBRANCH   9  10
ENDBRANCH   8   9
ENDBRANCH   3   8
BRANCH   2  12
ATOM     12  C   UNL     1      34.807 -20.194 -20.718  0.00  0.00    +0.136 C 
BRANCH  12  14
ATOM     13  O   UNL     1      32.379 -20.316 -20.856  0.00  0.00    -0.250 OA
ATOM     14  C   UNL     1      33.418 -20.623 -20.288  0.00  0.00    +0.318 C 
BRANCH  14  15
ATOM     15  O   UNL     1      33.451 -21.403 -19.176  0.00  0.00    -0.480 OA
ATOM     16  H   UNL     1      34.197 -21.944 -19.004  0.00  0.00    +0.295 HD
ENDBRANCH  14  15
ENDBRANCH  12  14
ENDBRANCH   2  12
TORSDOF 6
ENDMDL
MODEL 3
REMARK VINA RESULT:      -7.1      2.200      3.163
REMARK  Name = 2084
REMARK  6 active torsions:
REMARK  status: ('A' for Active; 'I' for Inactive)
REMARK    1  A    between atoms: C_2  and  C_12
REMARK    2  A    between atoms: C_3  and  O_8
REMARK    3  A    between atoms: O_8  and  C_9
REMARK    4  A    between atoms: C_9  and  C_10
REMARK    5  A    between atoms: C_12  and  C_14
REMARK    6  A    between atoms: C_14  and  O_15
REMARK                            x       y       z     vdW  Elec       q    Type
REMARK                         _______ _______ _______ _____ _____    ______ ____
ROOT
ATOM      1 CL   UNL     1      37.424 -18.666 -21.892  0.00  0.00    -0.079 Cl
ATOM      2  C   UNL     1      34.840 -20.914 -19.835  0.00  0.00    -0.010 C 
ATOM      3  C   UNL     1      34.720 -18.947 -21.810  0.00  0.00    +0.149 C 
ATOM      4  C   UNL     1      36.015 -20.341 -20.321  0.00  0.00    +0.011 C 
ATOM      5  C   UNL     1      33.605 -20.503 -20.337  0.00  0.00    -0.001 C 
ATOM      6  C   UNL     1      35.955 -19.358 -21.308  0.00  0.00    +0.091 C 
ATOM      7  C   UNL     1      33.544 -19.519 -21.324  0.00  0.00    +0.037 C 
ENDROOT
BRANCH   3   8
ATOM      8  O   UNL     1      34.633 -17.986 -22.774  0.00  0.00    -0.475 OA
BRANCH   8   9
ATOM      9  C   UNL     1      34.630 -18.426 -24.130  0.00  0.00    +0.205 C 
BRANCH   9  10
ATOM     10  C   UNL     1      34.639 -17.210 -25.041  0.00  0.00    +0.047 C 
ATOM     11  C   UNL     1      34.271 -15.940 -24.294  0.00  0.00    +0.004 C 
ENDBRANCH   9  10
ENDBRANCH   8   9
ENDBRANCH   3   8
BRANCH   2  12
ATOM     12  C   UNL     1      34.902 -21.965 -18.780  0.00  0.00    +0.136 C 
BRANCH  12  14
ATOM     13  O   UNL     1      32.655 -22.693 -18.184  0.00  0.00    -0.250 OA
ATOM     14  C   UNL     1      33.704 -22.895 -18.781  0.00  0.00    +0.318 C 
BRANCH  14  15
ATOM     15  O   UNL     1      33.925 -24.005 -19.533  0.00  0.00    -0.480 OA
ATOM     16  H   UNL     1      34.679 -24.539 -19.371  0.00  0.00    +0.295 HD
ENDBRANCH  14  15
ENDBRANCH  12  14
ENDBRANCH   2  12
TORSDOF 6
ENDMDL
MODEL 4
REMARK VINA RESULT:      -7.0      7.326     10.009
REMARK  Name = 2084
REMARK  6 active torsions:
REMARK  status: ('A' for Active; 'I' for Inactive)
REMARK    1  A    between atoms: C_2  and  C_12
REMARK    2  A    between atoms: C_3  and  O_8
REMARK    3  A    between atoms: O_8  and  C_9
REMARK    4  A    between atoms: C_9  and  C_10
REMARK    5  A    between atoms: C_12  and  C_14
REMARK    6  A    between atoms: C_14  and  O_15
REMARK                            x       y       z     vdW  Elec       q    Type
REMARK                         _______ _______ _______ _____ _____    ______ ____
ROOT
ATOM      1 CL   UNL     1      37.181 -21.462 -16.542  0.00  0.00    -0.079 Cl
ATOM      2  C   UNL     1      37.695 -25.016 -14.789  0.00  0.00    -0.010 C 
ATOM      3  C   UNL     1      35.558 -23.490 -15.735  0.00  0.00    +0.149 C 
ATOM      4  C   UNL     1      37.930 -23.766 -15.363  0.00  0.00    +0.011 C 
ATOM      5  C   UNL     1      36.391 -25.502 -14.688  0.00  0.00    -0.001 C 
ATOM      6  C   UNL     1      36.861 -23.004 -15.835  0.00  0.00    +0.091 C 
ATOM      7  C   UNL     1      35.323 -24.740 -15.160  0.00  0.00    +0.037 C 
ENDROOT
BRANCH   3   8
ATOM      8  O   UNL     1      34.496 -22.765 -16.186  0.00  0.00    -0.475 OA
BRANCH   8   9
ATOM      9  C   UNL     1      33.846 -23.233 -17.366  0.00  0.00    +0.205 C 
BRANCH   9  10
ATOM     10  C   UNL     1      34.409 -22.489 -18.566  0.00  0.00    +0.047 C 
ATOM     11  C   UNL     1      33.345 -21.668 -19.272  0.00  0.00    +0.004 C 
ENDBRANCH   9  10
ENDBRANCH   8   9
ENDBRANCH   3   8
BRANCH   2  12
ATOM     12  C   UNL     1      38.836 -25.831 -14.283  0.00  0.00    +0.136 C 
BRANCH  12  14
ATOM     13  O   UNL     1      40.979 -24.674 -14.288  0.00  0.00    -0.250 OA
ATOM     14  C   UNL     1      40.178 -25.410 -14.849  0.00  0.00    +0.318 C 
BRANCH  14  15
ATOM     15  O   UNL     1      40.403 -25.949 -16.075  0.00  0.00    -0.480 OA
ATOM     16  H   UNL     1      41.229 -25.820 -16.500  0.00  0.00    +0.295 HD
ENDBRANCH  14  15
ENDBRANCH  12  14
ENDBRANCH   2  12
TORSDOF 6
ENDMDL
MODEL 5
REMARK VINA RESULT:      -7.0      3.683      7.214
REMARK  Name = 2084
REMARK  6 active torsions:
REMARK  status: ('A' for Active; 'I' for Inactive)
REMARK    1  A    between atoms: C_2  and  C_12
REMARK    2  A    between atoms: C_3  and  O_8
REMARK    3  A    between atoms: O_8  and  C_9
REMARK    4  A    between atoms: C_9  and  C_10
REMARK    5  A    between atoms: C_12  and  C_14
REMARK    6  A    between atoms: C_14  and  O_15
REMARK                            x       y       z     vdW  Elec       q    Type
REMARK                         _______ _______ _______ _____ _____    ______ ____
ROOT
ATOM      1 CL   UNL     1      33.082 -22.352 -18.438  0.00  0.00    -0.079 Cl
ATOM      2  C   UNL     1      34.853 -19.811 -20.962  0.00  0.00    -0.010 C 
ATOM      3  C   UNL     1      35.641 -21.606 -18.976  0.00  0.00    +0.149 C 
ATOM      4  C   UNL     1      33.894 -20.552 -20.270  0.00  0.00    +0.011 C 
ATOM      5  C   UNL     1      36.206 -19.968 -20.661  0.00  0.00    -0.001 C 
ATOM      6  C   UNL     1      34.289 -21.448 -19.278  0.00  0.00    +0.091 C 
ATOM      7  C   UNL     1      36.601 -20.865 -19.668  0.00  0.00    +0.037 C 
ENDROOT
BRANCH   3   8
ATOM      8  O   UNL     1      36.054 -22.474 -18.010  0.00  0.00    -0.475 OA
BRANCH   8   9
ATOM      9  C   UNL     1      36.936 -21.961 -17.013  0.00  0.00    +0.205 C 
BRANCH   9  10
ATOM     10  C   UNL     1      36.718 -22.733 -15.721  0.00  0.00    +0.047 C 
ATOM     11  C   UNL     1      35.243 -22.872 -15.388  0.00  0.00    +0.004 C 
ENDBRANCH   9  10
ENDBRANCH   8   9
ENDBRANCH   3   8
BRANCH   2  12
ATOM     12  C   UNL     1      34.433 -18.852 -22.023  0.00  0.00    +0.136 C 
BRANCH  12  14
ATOM     13  O   UNL     1      35.024 -16.753 -20.937  0.00  0.00    -0.250 OA
ATOM     14  C   UNL     1      35.098 -17.494 -21.908  0.00  0.00    +0.318 C 
BRANCH  14  15
ATOM     15  O   UNL     1      35.803 -17.179 -23.026  0.00  0.00    -0.480 OA
ATOM     16  H   UNL     1      36.645 -17.563 -23.174  0.00  0.00    +0.295 HD
ENDBRANCH  14  15
ENDBRANCH  12  14
ENDBRANCH   2  12
TORSDOF 6
ENDMDL
MODEL 6
REMARK VINA RESULT:      -7.0      3.249      7.074
REMARK  Name = 2084
REMARK  6 active torsions:
REMARK  status: ('A' for Active; 'I' for Inactive)
REMARK    1  A    between atoms: C_2  and  C_12
REMARK    2  A    between atoms: C_3  and  O_8
REMARK    3  A    between atoms: O_8  and  C_9
REMARK    4  A    between atoms: C_9  and  C_10
REMARK    5  A    between atoms: C_12  and  C_14
REMARK    6  A    between atoms: C_14  and  O_15
REMARK                            x       y       z     vdW  Elec       q    Type
REMARK                         _______ _______ _______ _____ _____    ______ ____
ROOT
ATOM      1 CL   UNL     1      36.944 -21.720 -19.243  0.00  0.00    -0.079 Cl
ATOM      2  C   UNL     1      34.198 -19.426 -21.020  0.00  0.00    -0.010 C 
ATOM      3  C   UNL     1      34.230 -21.701 -19.404  0.00  0.00    +0.149 C 
ATOM      4  C   UNL     1      35.413 -19.953 -20.581  0.00  0.00    +0.011 C 
ATOM      5  C   UNL     1      32.999 -20.037 -20.652  0.00  0.00    -0.001 C 
ATOM      6  C   UNL     1      35.428 -21.090 -19.773  0.00  0.00    +0.091 C 
ATOM      7  C   UNL     1      33.015 -21.174 -19.844  0.00  0.00    +0.037 C 
ENDROOT
BRANCH   3   8
ATOM      8  O   UNL     1      34.216 -22.814 -18.617  0.00  0.00    -0.475 OA
BRANCH   8   9
ATOM      9  C   UNL     1      33.156 -22.925 -17.671  0.00  0.00    +0.205 C 
BRANCH   9  10
ATOM     10  C   UNL     1      33.714 -23.482 -16.371  0.00  0.00    +0.047 C 
ATOM     11  C   UNL     1      35.128 -22.994 -16.108  0.00  0.00    +0.004 C 
ENDBRANCH   9  10
ENDBRANCH   8   9
ENDBRANCH   3   8
BRANCH   2  12
ATOM     12  C   UNL     1      34.180 -18.211 -21.884  0.00  0.00    +0.136 C 
BRANCH  12  14
ATOM     13  O   UNL     1      34.660 -19.157 -24.077  0.00  0.00    -0.250 OA
ATOM     14  C   UNL     1      34.952 -18.378 -23.179  0.00  0.00    +0.318 C 
BRANCH  14  15
ATOM     15  O   UNL     1      36.029 -17.553 -23.237  0.00  0.00    -0.480 OA
ATOM     16  H   UNL     1      35.967 -16.677 -22.908  0.00  0.00    +0.295 HD
ENDBRANCH  14  15
ENDBRANCH  12  14
ENDBRANCH   2  12
TORSDOF 6
ENDMDL
MODEL 7
REMARK VINA RESULT:      -6.9      2.522      6.053
REMARK  Name = 2084
REMARK  6 active torsions:
REMARK  status: ('A' for Active; 'I' for Inactive)
REMARK    1  A    between atoms: C_2  and  C_12
REMARK    2  A    between atoms: C_3  and  O_8
REMARK    3  A    between atoms: O_8  and  C_9
REMARK    4  A    between atoms: C_9  and  C_10
REMARK    5  A    between atoms: C_12  and  C_14
REMARK    6  A    between atoms: C_14  and  O_15
REMARK                            x       y       z     vdW  Elec       q    Type
REMARK                         _______ _______ _______ _____ _____    ______ ____
ROOT
ATOM      1 CL   UNL     1      34.595 -15.469 -20.212  0.00  0.00    -0.079 Cl
ATOM      2  C   UNL     1      33.872 -15.256 -24.135  0.00  0.00    -0.010 C 
ATOM      3  C   UNL     1      35.082 -17.048 -22.372  0.00  0.00    +0.149 C 
ATOM      4  C   UNL     1      33.931 -14.962 -22.773  0.00  0.00    +0.011 C 
ATOM      5  C   UNL     1      34.418 -16.447 -24.616  0.00  0.00    -0.001 C 
ATOM      6  C   UNL     1      34.537 -15.858 -21.892  0.00  0.00    +0.091 C 
ATOM      7  C   UNL     1      35.024 -17.343 -23.735  0.00  0.00    +0.037 C 
ENDROOT
BRANCH   3   8
ATOM      8  O   UNL     1      35.682 -17.940 -21.533  0.00  0.00    -0.475 OA
BRANCH   8   9
ATOM      9  C   UNL     1      35.191 -19.279 -21.553  0.00  0.00    +0.205 C 
BRANCH   9  10
ATOM     10  C   UNL     1      33.789 -19.297 -20.966  0.00  0.00    +0.047 C 
ATOM     11  C   UNL     1      33.516 -20.576 -20.193  0.00  0.00    +0.004 C 
ENDBRANCH   9  10
ENDBRANCH   8   9
ENDBRANCH   3   8
BRANCH   2  12
ATOM     12  C   UNL     1      33.226 -14.300 -25.078  0.00  0.00    +0.136 C 
BRANCH  12  14
ATOM     13  O   UNL     1      32.462 -15.841 -26.803  0.00  0.00    -0.250 OA
ATOM     14  C   UNL     1      33.091 -14.839 -26.489  0.00  0.00    +0.318 C 
BRANCH  14  15
ATOM     15  O   UNL     1      33.761 -14.074 -27.390  0.00  0.00    -0.480 OA
ATOM     16  H   UNL     1      33.295 -13.655 -28.088  0.00  0.00    +0.295 HD
ENDBRANCH  14  15
ENDBRANCH  12  14
ENDBRANCH   2  12
TORSDOF 6
ENDMDL
MODEL 8
REMARK VINA RESULT:      -6.9      7.665      9.189
REMARK  Name = 2084
REMARK  6 active torsions:
REMARK  status: ('A' for Active; 'I' for Inactive)
REMARK    1  A    between atoms: C_2  and  C_12
REMARK    2  A    between atoms: C_3  and  O_8
REMARK    3  A    between atoms: O_8  and  C_9
REMARK    4  A    between atoms: C_9  and  C_10
REMARK    5  A    between atoms: C_12  and  C_14
REMARK    6  A    between atoms: C_14  and  O_15
REMARK                            x       y       z     vdW  Elec       q    Type
REMARK                         _______ _______ _______ _____ _____    ______ ____
ROOT
ATOM      1 CL   UNL     1      33.644 -22.965 -18.636  0.00  0.00    -0.079 Cl
ATOM      2  C   UNL     1      31.193 -23.017 -15.482  0.00  0.00    -0.010 C 
ATOM      3  C   UNL     1      33.901 -23.474 -15.977  0.00  0.00    +0.149 C 
ATOM      4  C   UNL     1      31.696 -22.895 -16.777  0.00  0.00    +0.011 C 
ATOM      5  C   UNL     1      32.045 -23.368 -14.434  0.00  0.00    -0.001 C 
ATOM      6  C   UNL     1      33.049 -23.124 -17.024  0.00  0.00    +0.091 C 
ATOM      7  C   UNL     1      33.399 -23.596 -14.681  0.00  0.00    +0.037 C 
ENDROOT
BRANCH   3   8
ATOM      8  O   UNL     1      35.228 -23.704 -16.192  0.00  0.00    -0.475 OA
BRANCH   8   9
ATOM      9  C   UNL     1      36.151 -22.951 -15.409  0.00  0.00    +0.205 C 
BRANCH   9  10
ATOM     10  C   UNL     1      37.314 -22.530 -16.292  0.00  0.00    +0.047 C 
ATOM     11  C   UNL     1      36.854 -21.694 -17.473  0.00  0.00    +0.004 C 
ENDBRANCH   9  10
ENDBRANCH   8   9
ENDBRANCH   3   8
BRANCH   2  12
ATOM     12  C   UNL     1      29.747 -22.774 -15.216  0.00  0.00    +0.136 C 
BRANCH  12  14
ATOM     13  O   UNL     1      28.531 -24.237 -16.737  0.00  0.00    -0.250 OA
ATOM     14  C   UNL     1      28.851 -23.107 -16.393  0.00  0.00    +0.318 C 
BRANCH  14  15
ATOM     15  O   UNL     1      28.433 -21.990 -17.043  0.00  0.00    -0.480 OA
ATOM     16  H   UNL     1      27.750 -22.047 -17.683  0.00  0.00    +0.295 HD
ENDBRANCH  14  15
ENDBRANCH  12  14
ENDBRANCH   2  12
TORSDOF 6
ENDMDL
MODEL 9
REMARK VINA RESULT:      -6.9      1.668      5.590
REMARK  Name = 2084
REMARK  6 active torsions:
REMARK  status: ('A' for Active; 'I' for Inactive)
REMARK    1  A    between atoms: C_2  and  C_12
REMARK    2  A    between atoms: C_3  and  O_8
REMARK    3  A    between atoms: O_8  and  C_9
REMARK    4  A    between atoms: C_9  and  C_10
REMARK    5  A    between atoms: C_12  and  C_14
REMARK    6  A    between atoms: C_14  and  O_15
REMARK                            x       y       z     vdW  Elec       q    Type
REMARK                         _______ _______ _______ _____ _____    ______ ____
ROOT
ATOM      1 CL   UNL     1      34.603 -18.884 -24.830  0.00  0.00    -0.079 Cl
ATOM      2  C   UNL     1      34.500 -15.525 -22.670  0.00  0.00    -0.010 C 
ATOM      3  C   UNL     1      34.800 -18.258 -22.191  0.00  0.00    +0.149 C 
ATOM      4  C   UNL     1      34.480 -16.427 -23.735  0.00  0.00    +0.011 C 
ATOM      5  C   UNL     1      34.669 -15.991 -21.366  0.00  0.00    -0.001 C 
ATOM      6  C   UNL     1      34.630 -17.792 -23.495  0.00  0.00    +0.091 C 
ATOM      7  C   UNL     1      34.819 -17.357 -21.126  0.00  0.00    +0.037 C 
ENDROOT
BRANCH   3   8
ATOM      8  O   UNL     1      34.946 -19.588 -21.929  0.00  0.00    -0.475 OA
BRANCH   8   9
ATOM      9  C   UNL     1      35.493 -19.941 -20.660  0.00  0.00    +0.205 C 
BRANCH   9  10
ATOM     10  C   UNL     1      34.599 -20.986 -20.013  0.00  0.00    +0.047 C 
ATOM     11  C   UNL     1      33.132 -20.600 -20.091  0.00  0.00    +0.004 C 
ENDBRANCH   9  10
ENDBRANCH   8   9
ENDBRANCH   3   8
BRANCH   2  12
ATOM     12  C   UNL     1      34.339 -14.065 -22.924  0.00  0.00    +0.136 C 
BRANCH  12  14
ATOM     13  O   UNL     1      32.984 -13.609 -24.897  0.00  0.00    -0.250 OA
ATOM     14  C   UNL     1      33.071 -13.719 -23.681  0.00  0.00    +0.318 C 
BRANCH  14  15
ATOM     15  O   UNL     1      32.015 -13.539 -22.845  0.00  0.00    -0.480 OA
ATOM     16  H   UNL     1      32.140 -13.121 -22.015  0.00  0.00    +0.295 HD
ENDBRANCH  14  15
ENDBRANCH  12  14
ENDBRANCH   2  12
TORSDOF 6
ENDMDL
