MODEL 1
REMARK VINA RESULT:      -3.9      0.000      0.000
REMARK  Name = 1032
REMARK  2 active torsions:
REMARK  status: ('A' for Active; 'I' for Inactive)
REMARK    1  A    between atoms: C_2  and  O_3
REMARK    2  A    between atoms: C_2  and  C_5
REMARK                            x       y       z     vdW  Elec       q    Type
REMARK                         _______ _______ _______ _____ _____    ______ ____
ROOT
ATOM      1  O   UNL     1      41.158 -26.562 -14.062  0.00  0.00    -0.250 OA
ATOM      2  C   UNL     1      40.365 -25.951 -14.763  0.00  0.00    +0.314 C 
ENDROOT
BRANCH   2   3
ATOM      3  O   UNL     1      40.416 -25.931 -16.119  0.00  0.00    -0.480 OA
ATOM      4  H   UNL     1      41.157 -25.562 -16.556  0.00  0.00    +0.295 HD
ENDBRANCH   2   3
BRANCH   2   5
ATOM      5  C   UNL     1      39.205 -25.120 -14.277  0.00  0.00    +0.109 C 
ATOM      6  C   UNL     1      38.557 -25.716 -13.040  0.00  0.00    +0.012 C 
ENDBRANCH   2   5
TORSDOF 2
ENDMDL
MODEL 2
REMARK VINA RESULT:      -3.9     10.395     10.871
REMARK  Name = 1032
REMARK  2 active torsions:
REMARK  status: ('A' for Active; 'I' for Inactive)
REMARK    1  A    between atoms: C_2  and  O_3
REMARK    2  A    between atoms: C_2  and  C_5
REMARK                            x       y       z     vdW  Elec       q    Type
REMARK                         _______ _______ _______ _____ _____    ______ ____
ROOT
ATOM      1  O   UNL     1      42.249 -16.536 -15.704  0.00  0.00    -0.250 OA
ATOM      2  C   UNL     1      41.303 -15.763 -15.708  0.00  0.00    +0.314 C 
ENDROOT
BRANCH   2   3
ATOM      3  O   UNL     1      40.086 -16.056 -15.183  0.00  0.00    -0.480 OA
ATOM      4  H   UNL     1      39.469 -15.372 -15.017  0.00  0.00    +0.295 HD
ENDBRANCH   2   3
BRANCH   2   5
ATOM      5  C   UNL     1      41.296 -14.367 -16.279  0.00  0.00    +0.109 C 
ATOM      6  C   UNL     1      41.233 -14.374 -17.796  0.00  0.00    +0.012 C 
ENDBRANCH   2   5
TORSDOF 2
ENDMDL
MODEL 3
REMARK VINA RESULT:      -3.8     13.521     14.105
REMARK  Name = 1032
REMARK  2 active torsions:
REMARK  status: ('A' for Active; 'I' for Inactive)
REMARK    1  A    between atoms: C_2  and  O_3
REMARK    2  A    between atoms: C_2  and  C_5
REMARK                            x       y       z     vdW  Elec       q    Type
REMARK                         _______ _______ _______ _____ _____    ______ ____
ROOT
ATOM      1  O   UNL     1      26.333 -20.658 -17.963  0.00  0.00    -0.250 OA
ATOM      2  C   UNL     1      26.475 -21.580 -17.174  0.00  0.00    +0.314 C 
ENDROOT
BRANCH   2   3
ATOM      3  O   UNL     1      25.570 -21.897 -16.213  0.00  0.00    -0.480 OA
ATOM      4  H   UNL     1      25.065 -22.682 -16.285  0.00  0.00    +0.295 HD
ENDBRANCH   2   3
BRANCH   2   5
ATOM      5  C   UNL     1      27.648 -22.525 -17.111  0.00  0.00    +0.109 C 
ATOM      6  C   UNL     1      28.370 -22.448 -15.778  0.00  0.00    +0.012 C 
ENDBRANCH   2   5
TORSDOF 2
ENDMDL
MODEL 4
REMARK VINA RESULT:      -3.7     11.803     12.380
REMARK  Name = 1032
REMARK  2 active torsions:
REMARK  status: ('A' for Active; 'I' for Inactive)
REMARK    1  A    between atoms: C_2  and  O_3
REMARK    2  A    between atoms: C_2  and  C_5
REMARK                            x       y       z     vdW  Elec       q    Type
REMARK                         _______ _______ _______ _____ _____    ______ ____
ROOT
ATOM      1  O   UNL     1      27.665 -23.776 -17.634  0.00  0.00    -0.250 OA
ATOM      2  C   UNL     1      27.909 -22.759 -17.003  0.00  0.00    +0.314 C 
ENDROOT
BRANCH   2   3
ATOM      3  O   UNL     1      27.313 -21.562 -17.240  0.00  0.00    -0.480 OA
ATOM      4  H   UNL     1      27.297 -20.906 -16.573  0.00  0.00    +0.295 HD
ENDBRANCH   2   3
BRANCH   2   5
ATOM      5  C   UNL     1      28.891 -22.631 -15.865  0.00  0.00    +0.109 C 
ATOM      6  C   UNL     1      30.308 -22.964 -16.297  0.00  0.00    +0.012 C 
ENDBRANCH   2   5
TORSDOF 2
ENDMDL
MODEL 5
REMARK VINA RESULT:      -3.6     13.429     14.211
REMARK  Name = 1032
REMARK  2 active torsions:
REMARK  status: ('A' for Active; 'I' for Inactive)
REMARK    1  A    between atoms: C_2  and  O_3
REMARK    2  A    between atoms: C_2  and  C_5
REMARK                            x       y       z     vdW  Elec       q    Type
REMARK                         _______ _______ _______ _____ _____    ______ ____
ROOT
ATOM      1  O   UNL     1      34.485 -16.493 -25.957  0.00  0.00    -0.250 OA
ATOM      2  C   UNL     1      34.797 -17.176 -24.993  0.00  0.00    +0.314 C 
ENDROOT
BRANCH   2   3
ATOM      3  O   UNL     1      35.536 -16.718 -23.950  0.00  0.00    -0.480 OA
ATOM      4  H   UNL     1      36.011 -15.915 -24.029  0.00  0.00    +0.295 HD
ENDBRANCH   2   3
BRANCH   2   5
ATOM      5  C   UNL     1      34.433 -18.623 -24.772  0.00  0.00    +0.109 C 
ATOM      6  C   UNL     1      34.876 -19.119 -23.407  0.00  0.00    +0.012 C 
ENDBRANCH   2   5
TORSDOF 2
ENDMDL
MODEL 6
REMARK VINA RESULT:      -3.6      8.690      9.349
REMARK  Name = 1032
REMARK  2 active torsions:
REMARK  status: ('A' for Active; 'I' for Inactive)
REMARK    1  A    between atoms: C_2  and  O_3
REMARK    2  A    between atoms: C_2  and  C_5
REMARK                            x       y       z     vdW  Elec       q    Type
REMARK                         _______ _______ _______ _____ _____    ______ ____
ROOT
ATOM      1  O   UNL     1      34.915 -22.698 -18.990  0.00  0.00    -0.250 OA
ATOM      2  C   UNL     1      34.019 -21.931 -19.312  0.00  0.00    +0.314 C 
ENDROOT
BRANCH   2   3
ATOM      3  O   UNL     1      32.716 -22.111 -18.978  0.00  0.00    -0.480 OA
ATOM      4  H   UNL     1      32.309 -21.543 -18.356  0.00  0.00    +0.295 HD
ENDBRANCH   2   3
BRANCH   2   5
ATOM      5  C   UNL     1      34.177 -20.668 -20.121  0.00  0.00    +0.109 C 
ATOM      6  C   UNL     1      32.836 -20.072 -20.511  0.00  0.00    +0.012 C 
ENDBRANCH   2   5
TORSDOF 2
ENDMDL
MODEL 7
REMARK VINA RESULT:      -3.5      3.074      3.300
REMARK  Name = 1032
REMARK  2 active torsions:
REMARK  status: ('A' for Active; 'I' for Inactive)
REMARK    1  A    between atoms: C_2  and  O_3
REMARK    2  A    between atoms: C_2  and  C_5
REMARK                            x       y       z     vdW  Elec       q    Type
REMARK                         _______ _______ _______ _____ _____    ______ ____
ROOT
ATOM      1  O   UNL     1      38.167 -27.087 -14.650  0.00  0.00    -0.250 OA
ATOM      2  C   UNL     1      37.182 -26.744 -15.286  0.00  0.00    +0.314 C 
ENDROOT
BRANCH   2   3
ATOM      3  O   UNL     1      36.759 -27.366 -16.416  0.00  0.00    -0.480 OA
ATOM      4  H   UNL     1      37.134 -28.185 -16.669  0.00  0.00    +0.295 HD
ENDBRANCH   2   3
BRANCH   2   5
ATOM      5  C   UNL     1      36.263 -25.595 -14.953  0.00  0.00    +0.109 C 
ATOM      6  C   UNL     1      36.954 -24.252 -15.107  0.00  0.00    +0.012 C 
ENDBRANCH   2   5
TORSDOF 2
ENDMDL
MODEL 8
REMARK VINA RESULT:      -3.4      2.503      3.085
REMARK  Name = 1032
REMARK  2 active torsions:
REMARK  status: ('A' for Active; 'I' for Inactive)
REMARK    1  A    between atoms: C_2  and  O_3
REMARK    2  A    between atoms: C_2  and  C_5
REMARK                            x       y       z     vdW  Elec       q    Type
REMARK                         _______ _______ _______ _____ _____    ______ ____
ROOT
ATOM      1  O   UNL     1      36.334 -26.890 -15.796  0.00  0.00    -0.250 OA
ATOM      2  C   UNL     1      37.237 -26.541 -15.052  0.00  0.00    +0.314 C 
ENDROOT
BRANCH   2   3
ATOM      3  O   UNL     1      38.443 -26.093 -15.485  0.00  0.00    -0.480 OA
ATOM      4  H   UNL     1      38.733 -26.292 -16.353  0.00  0.00    +0.295 HD
ENDBRANCH   2   3
BRANCH   2   5
ATOM      5  C   UNL     1      37.197 -26.539 -13.544  0.00  0.00    +0.109 C 
ATOM      6  C   UNL     1      38.315 -25.703 -12.946  0.00  0.00    +0.012 C 
ENDBRANCH   2   5
TORSDOF 2
ENDMDL
MODEL 9
REMARK VINA RESULT:      -3.4      3.706      4.187
REMARK  Name = 1032
REMARK  2 active torsions:
REMARK  status: ('A' for Active; 'I' for Inactive)
REMARK    1  A    between atoms: C_2  and  O_3
REMARK    2  A    between atoms: C_2  and  C_5
REMARK                            x       y       z     vdW  Elec       q    Type
REMARK                         _______ _______ _______ _____ _____    ______ ____
ROOT
ATOM      1  O   UNL     1      38.654 -22.927 -11.703  0.00  0.00    -0.250 OA
ATOM      2  C   UNL     1      38.074 -23.998 -11.799  0.00  0.00    +0.314 C 
ENDROOT
BRANCH   2   3
ATOM      3  O   UNL     1      37.079 -24.395 -10.965  0.00  0.00    -0.480 OA
ATOM      4  H   UNL     1      37.201 -24.356 -10.038  0.00  0.00    +0.295 HD
ENDBRANCH   2   3
BRANCH   2   5
ATOM      5  C   UNL     1      38.339 -25.064 -12.832  0.00  0.00    +0.109 C 
ATOM      6  C   UNL     1      37.297 -26.168 -12.791  0.00  0.00    +0.012 C 
ENDBRANCH   2   5
TORSDOF 2
ENDMDL
