MODEL 1
REMARK VINA RESULT:     -10.3      0.000      0.000
REMARK  Name = 441401
REMARK  4 active torsions:
REMARK  status: ('A' for Active; 'I' for Inactive)
REMARK    1  A    between atoms: C_2  and  N_10
REMARK    2  A    between atoms: C_3  and  N_21
REMARK    3  A    between atoms: C_11  and  C_14
REMARK    4  A    between atoms: C_14  and  N_16
REMARK                            x       y       z     vdW  Elec       q    Type
REMARK                         _______ _______ _______ _____ _____    ______ ____
ROOT
ATOM      1  F   UNL     1      32.427 -20.616 -19.617  0.00  0.00    -0.203 F 
ATOM      2  C   UNL     1      34.904 -19.040 -21.761  0.00  0.00    +0.059 C 
ATOM      3  C   UNL     1      34.785 -20.906 -19.653  0.00  0.00    +0.076 C 
ATOM      4  C   UNL     1      33.674 -19.376 -21.197  0.00  0.00    +0.046 C 
ATOM      5  C   UNL     1      36.075 -19.627 -21.283  0.00  0.00    +0.016 C 
ATOM      6  C   UNL     1      33.615 -20.300 -20.152  0.00  0.00    +0.155 C 
ATOM      7  C   UNL     1      36.016 -20.552 -20.240  0.00  0.00    +0.018 C 
ENDROOT
BRANCH   2  10
ATOM      8  O   UNL     1      34.947 -17.169 -24.884  0.00  0.00    -0.434 OA
ATOM      9  O   UNL     1      34.623 -19.410 -24.768  0.00  0.00    -0.226 OA
ATOM     10  N   UNL     1      34.964 -18.098 -22.828  0.00  0.00    -0.221 N 
ATOM     11  C   UNL     1      34.956 -16.077 -23.954  0.00  0.00    +0.210 C 
ATOM     12  C   UNL     1      35.309 -16.716 -22.628  0.00  0.00    +0.147 C 
ATOM     13  C   UNL     1      34.814 -18.350 -24.190  0.00  0.00    +0.409 C 
BRANCH  11  14
ATOM     14  C   UNL     1      33.583 -15.418 -23.956  0.00  0.00    +0.135 C 
BRANCH  14  16
ATOM     15  O   UNL     1      32.721 -15.678 -26.716  0.00  0.00    -0.275 OA
ATOM     16  N   UNL     1      33.526 -14.378 -24.960  0.00  0.00    -0.301 N 
ATOM     17  C   UNL     1      33.097 -14.603 -26.256  0.00  0.00    +0.223 C 
ATOM     18  C   UNL     1      33.113 -13.347 -27.086  0.00  0.00    +0.095 C 
ATOM     19  H   UNL     1      33.804 -13.467 -24.710  0.00  0.00    +0.150 HD
ENDBRANCH  14  16
ENDBRANCH  11  14
ENDBRANCH   2  10
BRANCH   3  21
ATOM     20  O   UNL     1      34.787 -23.854 -16.654  0.00  0.00    -0.350 OA
ATOM     21  N   UNL     1      34.728 -21.833 -18.606  0.00  0.00    -0.301 N 
ATOM     22  C   UNL     1      35.956 -22.092 -17.843  0.00  0.00    +0.123 C 
ATOM     23  C   UNL     1      33.786 -22.955 -18.673  0.00  0.00    +0.123 C 
ATOM     24  C   UNL     1      35.603 -22.694 -16.488  0.00  0.00    +0.164 C 
ATOM     25  C   UNL     1      33.548 -23.511 -17.273  0.00  0.00    +0.164 C 
ENDBRANCH   3  21
TORSDOF 4
ENDMDL
MODEL 2
REMARK VINA RESULT:     -10.2      8.323     10.812
REMARK  Name = 441401
REMARK  4 active torsions:
REMARK  status: ('A' for Active; 'I' for Inactive)
REMARK    1  A    between atoms: C_2  and  N_10
REMARK    2  A    between atoms: C_3  and  N_21
REMARK    3  A    between atoms: C_11  and  C_14
REMARK    4  A    between atoms: C_14  and  N_16
REMARK                            x       y       z     vdW  Elec       q    Type
REMARK                         _______ _______ _______ _____ _____    ______ ____
ROOT
ATOM      1  F   UNL     1      32.372 -22.810 -17.732  0.00  0.00    -0.203 F 
ATOM      2  C   UNL     1      34.872 -23.950 -15.352  0.00  0.00    +0.059 C 
ATOM      3  C   UNL     1      32.071 -23.715 -15.556  0.00  0.00    +0.076 C 
ATOM      4  C   UNL     1      34.299 -23.429 -16.512  0.00  0.00    +0.046 C 
ATOM      5  C   UNL     1      34.061 -24.355 -14.293  0.00  0.00    +0.016 C 
ATOM      6  C   UNL     1      32.912 -23.312 -16.613  0.00  0.00    +0.155 C 
ATOM      7  C   UNL     1      32.674 -24.238 -14.394  0.00  0.00    +0.018 C 
ENDROOT
BRANCH   2  10
ATOM      8  O   UNL     1      38.497 -23.611 -15.291  0.00  0.00    -0.434 OA
ATOM      9  O   UNL     1      37.089 -21.934 -15.878  0.00  0.00    -0.226 OA
ATOM     10  N   UNL     1      36.288 -24.070 -15.250  0.00  0.00    -0.221 N 
ATOM     11  C   UNL     1      38.369 -24.896 -14.665  0.00  0.00    +0.210 C 
ATOM     12  C   UNL     1      36.945 -25.316 -14.960  0.00  0.00    +0.147 C 
ATOM     13  C   UNL     1      37.242 -23.087 -15.501  0.00  0.00    +0.409 C 
BRANCH  11  14
ATOM     14  C   UNL     1      38.655 -24.749 -13.176  0.00  0.00    +0.135 C 
BRANCH  14  16
ATOM     15  O   UNL     1      37.530 -22.861 -11.280  0.00  0.00    -0.275 OA
ATOM     16  N   UNL     1      37.434 -24.891 -12.414  0.00  0.00    -0.301 N 
ATOM     17  C   UNL     1      36.979 -23.929 -11.530  0.00  0.00    +0.223 C 
ATOM     18  C   UNL     1      35.673 -24.318 -10.890  0.00  0.00    +0.095 C 
ATOM     19  H   UNL     1      36.901 -25.711 -12.530  0.00  0.00    +0.150 HD
ENDBRANCH  14  16
ENDBRANCH  11  14
ENDBRANCH   2  10
BRANCH   3  21
ATOM     20  O   UNL     1      27.875 -23.450 -15.585  0.00  0.00    -0.350 OA
ATOM     21  N   UNL     1      30.681 -23.598 -15.654  0.00  0.00    -0.301 N 
ATOM     22  C   UNL     1      30.011 -22.576 -14.839  0.00  0.00    +0.123 C 
ATOM     23  C   UNL     1      29.868 -24.780 -15.965  0.00  0.00    +0.123 C 
ATOM     24  C   UNL     1      28.645 -22.257 -15.434  0.00  0.00    +0.164 C 
ATOM     25  C   UNL     1      28.509 -24.343 -16.500  0.00  0.00    +0.164 C 
ENDBRANCH   3  21
TORSDOF 4
ENDMDL
MODEL 3
REMARK VINA RESULT:     -10.1      2.229      8.832
REMARK  Name = 441401
REMARK  4 active torsions:
REMARK  status: ('A' for Active; 'I' for Inactive)
REMARK    1  A    between atoms: C_2  and  N_10
REMARK    2  A    between atoms: C_3  and  N_21
REMARK    3  A    between atoms: C_11  and  C_14
REMARK    4  A    between atoms: C_14  and  N_16
REMARK                            x       y       z     vdW  Elec       q    Type
REMARK                         _______ _______ _______ _____ _____    ______ ____
ROOT
ATOM      1  F   UNL     1      36.986 -19.325 -21.363  0.00  0.00    -0.203 F 
ATOM      2  C   UNL     1      34.557 -21.224 -19.438  0.00  0.00    +0.059 C 
ATOM      3  C   UNL     1      34.615 -19.332 -21.526  0.00  0.00    +0.076 C 
ATOM      4  C   UNL     1      35.777 -20.730 -19.896  0.00  0.00    +0.046 C 
ATOM      5  C   UNL     1      33.365 -20.782 -20.011  0.00  0.00    +0.016 C 
ATOM      6  C   UNL     1      35.807 -19.793 -20.930  0.00  0.00    +0.155 C 
ATOM      7  C   UNL     1      33.394 -19.846 -21.046  0.00  0.00    +0.018 C 
ENDROOT
BRANCH   2  10
ATOM      8  O   UNL     1      35.096 -23.432 -16.593  0.00  0.00    -0.434 OA
ATOM      9  O   UNL     1      36.609 -21.896 -17.295  0.00  0.00    -0.226 OA
ATOM     10  N   UNL     1      34.527 -22.181 -18.384  0.00  0.00    -0.221 N 
ATOM     11  C   UNL     1      33.712 -23.712 -16.851  0.00  0.00    +0.210 C 
ATOM     12  C   UNL     1      33.464 -23.138 -18.230  0.00  0.00    +0.147 C 
ATOM     13  C   UNL     1      35.513 -22.422 -17.429  0.00  0.00    +0.409 C 
BRANCH  11  14
ATOM     14  C   UNL     1      32.867 -23.055 -15.767  0.00  0.00    +0.135 C 
BRANCH  14  16
ATOM     15  O   UNL     1      30.210 -22.593 -16.840  0.00  0.00    -0.275 OA
ATOM     16  N   UNL     1      31.672 -23.833 -15.521  0.00  0.00    -0.301 N 
ATOM     17  C   UNL     1      30.445 -23.531 -16.083  0.00  0.00    +0.223 C 
ATOM     18  C   UNL     1      29.379 -24.515 -15.683  0.00  0.00    +0.095 C 
ATOM     19  H   UNL     1      31.735 -24.616 -14.926  0.00  0.00    +0.150 HD
ENDBRANCH  14  16
ENDBRANCH  11  14
ENDBRANCH   2  10
BRANCH   3  21
ATOM     20  O   UNL     1      34.972 -16.551 -24.659  0.00  0.00    -0.350 OA
ATOM     21  N   UNL     1      34.642 -18.393 -22.562  0.00  0.00    -0.301 N 
ATOM     22  C   UNL     1      34.992 -18.858 -23.911  0.00  0.00    +0.123 C 
ATOM     23  C   UNL     1      34.988 -16.996 -22.274  0.00  0.00    +0.123 C 
ATOM     24  C   UNL     1      34.485 -17.862 -24.946  0.00  0.00    +0.164 C 
ATOM     25  C   UNL     1      34.480 -16.099 -23.398  0.00  0.00    +0.164 C 
ENDBRANCH   3  21
TORSDOF 4
ENDMDL
MODEL 4
REMARK VINA RESULT:      -9.9      3.223      5.198
REMARK  Name = 441401
REMARK  4 active torsions:
REMARK  status: ('A' for Active; 'I' for Inactive)
REMARK    1  A    between atoms: C_2  and  N_10
REMARK    2  A    between atoms: C_3  and  N_21
REMARK    3  A    between atoms: C_11  and  C_14
REMARK    4  A    between atoms: C_14  and  N_16
REMARK                            x       y       z     vdW  Elec       q    Type
REMARK                         _______ _______ _______ _____ _____    ______ ____
ROOT
ATOM      1  F   UNL     1      37.888 -22.451 -15.789  0.00  0.00    -0.203 F 
ATOM      2  C   UNL     1      35.205 -21.956 -18.192  0.00  0.00    +0.059 C 
ATOM      3  C   UNL     1      35.694 -23.363 -15.799  0.00  0.00    +0.076 C 
ATOM      4  C   UNL     1      36.447 -21.856 -17.566  0.00  0.00    +0.046 C 
ATOM      5  C   UNL     1      34.204 -22.750 -17.634  0.00  0.00    +0.016 C 
ATOM      6  C   UNL     1      36.690 -22.553 -16.382  0.00  0.00    +0.155 C 
ATOM      7  C   UNL     1      34.446 -23.447 -16.449  0.00  0.00    +0.018 C 
ENDROOT
BRANCH   2  10
ATOM      8  O   UNL     1      33.926 -20.145 -21.080  0.00  0.00    -0.434 OA
ATOM      9  O   UNL     1      32.618 -20.890 -19.385  0.00  0.00    -0.226 OA
ATOM     10  N   UNL     1      34.958 -21.243 -19.400  0.00  0.00    -0.221 N 
ATOM     11  C   UNL     1      35.334 -19.983 -21.304  0.00  0.00    +0.210 C 
ATOM     12  C   UNL     1      35.979 -20.995 -20.381  0.00  0.00    +0.147 C 
ATOM     13  C   UNL     1      33.733 -20.778 -19.873  0.00  0.00    +0.409 C 
BRANCH  11  14
ATOM     14  C   UNL     1      35.721 -18.546 -20.982  0.00  0.00    +0.135 C 
BRANCH  14  16
ATOM     15  O   UNL     1      34.942 -15.826 -20.331  0.00  0.00    -0.275 OA
ATOM     16  N   UNL     1      34.965 -17.626 -21.805  0.00  0.00    -0.301 N 
ATOM     17  C   UNL     1      34.643 -16.343 -21.404  0.00  0.00    +0.223 C 
ATOM     18  C   UNL     1      33.875 -15.593 -22.459  0.00  0.00    +0.095 C 
ATOM     19  H   UNL     1      34.667 -17.928 -22.694  0.00  0.00    +0.150 HD
ENDBRANCH  14  16
ENDBRANCH  11  14
ENDBRANCH   2  10
BRANCH   3  21
ATOM     20  O   UNL     1      36.247 -25.668 -12.327  0.00  0.00    -0.350 OA
ATOM     21  N   UNL     1      35.934 -24.062 -14.612  0.00  0.00    -0.301 N 
ATOM     22  C   UNL     1      36.663 -25.335 -14.693  0.00  0.00    +0.123 C 
ATOM     23  C   UNL     1      34.989 -23.954 -13.495  0.00  0.00    +0.123 C 
ATOM     24  C   UNL     1      37.260 -25.674 -13.332  0.00  0.00    +0.164 C 
ATOM     25  C   UNL     1      35.677 -24.366 -12.198  0.00  0.00    +0.164 C 
ENDBRANCH   3  21
TORSDOF 4
ENDMDL
MODEL 5
REMARK VINA RESULT:      -9.7      2.155      9.368
REMARK  Name = 441401
REMARK  4 active torsions:
REMARK  status: ('A' for Active; 'I' for Inactive)
REMARK    1  A    between atoms: C_2  and  N_10
REMARK    2  A    between atoms: C_3  and  N_21
REMARK    3  A    between atoms: C_11  and  C_14
REMARK    4  A    between atoms: C_14  and  N_16
REMARK                            x       y       z     vdW  Elec       q    Type
REMARK                         _______ _______ _______ _____ _____    ______ ____
ROOT
ATOM      1  F   UNL     1      37.002 -19.043 -21.333  0.00  0.00    -0.203 F 
ATOM      2  C   UNL     1      34.684 -21.138 -19.474  0.00  0.00    +0.059 C 
ATOM      3  C   UNL     1      34.641 -19.218 -21.536  0.00  0.00    +0.076 C 
ATOM      4  C   UNL     1      35.874 -20.552 -19.905  0.00  0.00    +0.046 C 
ATOM      5  C   UNL     1      33.474 -20.776 -20.063  0.00  0.00    +0.016 C 
ATOM      6  C   UNL     1      35.852 -19.601 -20.926  0.00  0.00    +0.155 C 
ATOM      7  C   UNL     1      33.452 -19.826 -21.084  0.00  0.00    +0.018 C 
ENDROOT
BRANCH   2  10
ATOM      8  O   UNL     1      35.385 -23.431 -16.733  0.00  0.00    -0.434 OA
ATOM      9  O   UNL     1      36.916 -21.996 -17.593  0.00  0.00    -0.226 OA
ATOM     10  N   UNL     1      34.706 -22.110 -18.433  0.00  0.00    -0.221 N 
ATOM     11  C   UNL     1      33.964 -23.605 -16.829  0.00  0.00    +0.210 C 
ATOM     12  C   UNL     1      33.601 -22.990 -18.164  0.00  0.00    +0.147 C 
ATOM     13  C   UNL     1      35.776 -22.438 -17.603  0.00  0.00    +0.409 C 
BRANCH  11  14
ATOM     14  C   UNL     1      33.302 -22.908 -15.648  0.00  0.00    +0.135 C 
BRANCH  14  16
ATOM     15  O   UNL     1      32.857 -24.764 -13.460  0.00  0.00    -0.275 OA
ATOM     16  N   UNL     1      34.105 -23.070 -14.455  0.00  0.00    -0.301 N 
ATOM     17  C   UNL     1      33.809 -23.989 -13.464  0.00  0.00    +0.223 C 
ATOM     18  C   UNL     1      34.820 -23.967 -12.349  0.00  0.00    +0.095 C 
ATOM     19  H   UNL     1      34.901 -22.501 -14.344  0.00  0.00    +0.150 HD
ENDBRANCH  14  16
ENDBRANCH  11  14
ENDBRANCH   2  10
BRANCH   3  21
ATOM     20  O   UNL     1      34.845 -16.393 -24.644  0.00  0.00    -0.350 OA
ATOM     21  N   UNL     1      34.617 -18.265 -22.560  0.00  0.00    -0.301 N 
ATOM     22  C   UNL     1      34.918 -18.709 -23.928  0.00  0.00    +0.123 C 
ATOM     23  C   UNL     1      34.959 -16.869 -22.268  0.00  0.00    +0.123 C 
ATOM     24  C   UNL     1      34.360 -17.705 -24.929  0.00  0.00    +0.164 C 
ATOM     25  C   UNL     1      34.398 -15.962 -23.358  0.00  0.00    +0.164 C 
ENDBRANCH   3  21
TORSDOF 4
ENDMDL
MODEL 6
REMARK VINA RESULT:      -9.7      1.715      2.315
REMARK  Name = 441401
REMARK  4 active torsions:
REMARK  status: ('A' for Active; 'I' for Inactive)
REMARK    1  A    between atoms: C_2  and  N_10
REMARK    2  A    between atoms: C_3  and  N_21
REMARK    3  A    between atoms: C_11  and  C_14
REMARK    4  A    between atoms: C_14  and  N_16
REMARK                            x       y       z     vdW  Elec       q    Type
REMARK                         _______ _______ _______ _____ _____    ______ ____
ROOT
ATOM      1  F   UNL     1      37.062 -20.929 -19.856  0.00  0.00    -0.203 F 
ATOM      2  C   UNL     1      34.809 -18.949 -21.909  0.00  0.00    +0.059 C 
ATOM      3  C   UNL     1      34.689 -20.824 -19.808  0.00  0.00    +0.076 C 
ATOM      4  C   UNL     1      35.984 -19.488 -21.388  0.00  0.00    +0.046 C 
ATOM      5  C   UNL     1      33.574 -19.336 -21.391  0.00  0.00    +0.016 C 
ATOM      6  C   UNL     1      35.925 -20.417 -20.349  0.00  0.00    +0.155 C 
ATOM      7  C   UNL     1      33.514 -20.264 -20.350  0.00  0.00    +0.018 C 
ENDROOT
BRANCH   2  10
ATOM      8  O   UNL     1      34.847 -17.057 -25.020  0.00  0.00    -0.434 OA
ATOM      9  O   UNL     1      34.506 -19.296 -24.916  0.00  0.00    -0.226 OA
ATOM     10  N   UNL     1      34.869 -18.000 -22.970  0.00  0.00    -0.221 N 
ATOM     11  C   UNL     1      34.869 -15.971 -24.082  0.00  0.00    +0.210 C 
ATOM     12  C   UNL     1      35.226 -16.622 -22.763  0.00  0.00    +0.147 C 
ATOM     13  C   UNL     1      34.709 -18.241 -24.332  0.00  0.00    +0.409 C 
BRANCH  11  14
ATOM     14  C   UNL     1      33.501 -15.302 -24.072  0.00  0.00    +0.135 C 
BRANCH  14  16
ATOM     15  O   UNL     1      32.712 -12.690 -23.083  0.00  0.00    -0.275 OA
ATOM     16  N   UNL     1      33.124 -14.951 -22.719  0.00  0.00    -0.301 N 
ATOM     17  C   UNL     1      32.761 -13.670 -22.345  0.00  0.00    +0.223 C 
ATOM     18  C   UNL     1      32.393 -13.586 -20.888  0.00  0.00    +0.095 C 
ATOM     19  H   UNL     1      33.126 -15.657 -22.033  0.00  0.00    +0.150 HD
ENDBRANCH  14  16
ENDBRANCH  11  14
ENDBRANCH   2  10
BRANCH   3  21
ATOM     20  O   UNL     1      34.673 -23.786 -16.825  0.00  0.00    -0.350 OA
ATOM     21  N   UNL     1      34.627 -21.754 -18.766  0.00  0.00    -0.301 N 
ATOM     22  C   UNL     1      35.855 -22.031 -18.010  0.00  0.00    +0.123 C 
ATOM     23  C   UNL     1      33.672 -22.866 -18.834  0.00  0.00    +0.123 C 
ATOM     24  C   UNL     1      35.502 -22.636 -16.657  0.00  0.00    +0.164 C 
ATOM     25  C   UNL     1      33.434 -23.426 -17.436  0.00  0.00    +0.164 C 
ENDBRANCH   3  21
TORSDOF 4
ENDMDL
MODEL 7
REMARK VINA RESULT:      -9.6      5.433     10.413
REMARK  Name = 441401
REMARK  4 active torsions:
REMARK  status: ('A' for Active; 'I' for Inactive)
REMARK    1  A    between atoms: C_2  and  N_10
REMARK    2  A    between atoms: C_3  and  N_21
REMARK    3  A    between atoms: C_11  and  C_14
REMARK    4  A    between atoms: C_14  and  N_16
REMARK                            x       y       z     vdW  Elec       q    Type
REMARK                         _______ _______ _______ _____ _____    ______ ____
ROOT
ATOM      1  F   UNL     1      30.808 -10.632 -20.987  0.00  0.00    -0.203 F 
ATOM      2  C   UNL     1      32.893 -12.496 -23.310  0.00  0.00    +0.059 C 
ATOM      3  C   UNL     1      32.358  -9.822 -22.595  0.00  0.00    +0.076 C 
ATOM      4  C   UNL     1      31.966 -12.215 -22.307  0.00  0.00    +0.046 C 
ATOM      5  C   UNL     1      33.555 -11.455 -23.960  0.00  0.00    +0.016 C 
ATOM      6  C   UNL     1      31.701 -10.891 -21.953  0.00  0.00    +0.155 C 
ATOM      7  C   UNL     1      33.291 -10.131 -23.606  0.00  0.00    +0.018 C 
ENDROOT
BRANCH   2  10
ATOM      8  O   UNL     1      33.542 -15.723 -24.867  0.00  0.00    -0.434 OA
ATOM      9  O   UNL     1      33.158 -13.819 -26.036  0.00  0.00    -0.226 OA
ATOM     10  N   UNL     1      33.164 -13.846 -23.670  0.00  0.00    -0.221 N 
ATOM     11  C   UNL     1      33.835 -16.055 -23.502  0.00  0.00    +0.210 C 
ATOM     12  C   UNL     1      33.253 -14.908 -22.703  0.00  0.00    +0.147 C 
ATOM     13  C   UNL     1      33.281 -14.374 -24.954  0.00  0.00    +0.409 C 
BRANCH  11  14
ATOM     14  C   UNL     1      35.343 -16.194 -23.342  0.00  0.00    +0.135 C 
BRANCH  14  16
ATOM     15  O   UNL     1      35.280 -16.936 -20.536  0.00  0.00    -0.275 OA
ATOM     16  N   UNL     1      35.670 -17.480 -22.765  0.00  0.00    -0.301 N 
ATOM     17  C   UNL     1      35.608 -17.737 -21.407  0.00  0.00    +0.223 C 
ATOM     18  C   UNL     1      35.976 -19.159 -21.080  0.00  0.00    +0.095 C 
ATOM     19  H   UNL     1      35.950 -18.207 -23.367  0.00  0.00    +0.150 HD
ENDBRANCH  14  16
ENDBRANCH  11  14
ENDBRANCH   2  10
BRANCH   3  21
ATOM     20  O   UNL     1      31.785  -5.757 -21.690  0.00  0.00    -0.350 OA
ATOM     21  N   UNL     1      32.093  -8.495 -22.243  0.00  0.00    -0.301 N 
ATOM     22  C   UNL     1      31.676  -7.566 -23.302  0.00  0.00    +0.123 C 
ATOM     23  C   UNL     1      32.810  -7.880 -21.120  0.00  0.00    +0.123 C 
ATOM     24  C   UNL     1      30.963  -6.369 -22.685  0.00  0.00    +0.164 C 
ATOM     25  C   UNL     1      32.036  -6.665 -20.619  0.00  0.00    +0.164 C 
ENDBRANCH   3  21
TORSDOF 4
ENDMDL
MODEL 8
REMARK VINA RESULT:      -9.5      3.135      5.340
REMARK  Name = 441401
REMARK  4 active torsions:
REMARK  status: ('A' for Active; 'I' for Inactive)
REMARK    1  A    between atoms: C_2  and  N_10
REMARK    2  A    between atoms: C_3  and  N_21
REMARK    3  A    between atoms: C_11  and  C_14
REMARK    4  A    between atoms: C_14  and  N_16
REMARK                            x       y       z     vdW  Elec       q    Type
REMARK                         _______ _______ _______ _____ _____    ______ ____
ROOT
ATOM      1  F   UNL     1      34.057 -24.282 -15.495  0.00  0.00    -0.203 F 
ATOM      2  C   UNL     1      35.604 -22.052 -17.914  0.00  0.00    +0.059 C 
ATOM      3  C   UNL     1      36.252 -23.371 -15.509  0.00  0.00    +0.076 C 
ATOM      4  C   UNL     1      34.656 -22.857 -17.284  0.00  0.00    +0.046 C 
ATOM      5  C   UNL     1      36.872 -21.899 -17.355  0.00  0.00    +0.016 C 
ATOM      6  C   UNL     1      34.976 -23.510 -16.093  0.00  0.00    +0.155 C 
ATOM      7  C   UNL     1      37.193 -22.553 -16.165  0.00  0.00    +0.018 C 
ENDROOT
BRANCH   2  10
ATOM      8  O   UNL     1      34.127 -20.445 -20.829  0.00  0.00    -0.434 OA
ATOM      9  O   UNL     1      32.911 -21.346 -19.140  0.00  0.00    -0.226 OA
ATOM     10  N   UNL     1      35.277 -21.386 -19.130  0.00  0.00    -0.221 N 
ATOM     11  C   UNL     1      35.504 -20.100 -21.040  0.00  0.00    +0.210 C 
ATOM     12  C   UNL     1      36.267 -21.011 -20.104  0.00  0.00    +0.147 C 
ATOM     13  C   UNL     1      34.007 -21.090 -19.619  0.00  0.00    +0.409 C 
BRANCH  11  14
ATOM     14  C   UNL     1      35.693 -18.622 -20.726  0.00  0.00    +0.135 C 
BRANCH  14  16
ATOM     15  O   UNL     1      34.957 -15.814 -20.672  0.00  0.00    -0.275 OA
ATOM     16  N   UNL     1      35.239 -17.810 -21.835  0.00  0.00    -0.301 N 
ATOM     17  C   UNL     1      34.911 -16.473 -21.708  0.00  0.00    +0.223 C 
ATOM     18  C   UNL     1      34.495 -15.862 -23.019  0.00  0.00    +0.095 C 
ATOM     19  H   UNL     1      35.161 -18.230 -22.723  0.00  0.00    +0.150 HD
ENDBRANCH  14  16
ENDBRANCH  11  14
ENDBRANCH   2  10
BRANCH   3  21
ATOM     20  O   UNL     1      37.368 -25.106 -11.846  0.00  0.00    -0.350 OA
ATOM     21  N   UNL     1      36.575 -24.024 -14.315  0.00  0.00    -0.301 N 
ATOM     22  C   UNL     1      36.038 -23.482 -13.060  0.00  0.00    +0.123 C 
ATOM     23  C   UNL     1      37.854 -24.732 -14.193  0.00  0.00    +0.123 C 
ATOM     24  C   UNL     1      36.056 -24.560 -11.984  0.00  0.00    +0.164 C 
ATOM     25  C   UNL     1      37.775 -25.745 -13.056  0.00  0.00    +0.164 C 
ENDBRANCH   3  21
TORSDOF 4
ENDMDL
MODEL 9
REMARK VINA RESULT:      -9.2      4.265     10.746
REMARK  Name = 441401
REMARK  4 active torsions:
REMARK  status: ('A' for Active; 'I' for Inactive)
REMARK    1  A    between atoms: C_2  and  N_10
REMARK    2  A    between atoms: C_3  and  N_21
REMARK    3  A    between atoms: C_11  and  C_14
REMARK    4  A    between atoms: C_14  and  N_16
REMARK                            x       y       z     vdW  Elec       q    Type
REMARK                         _______ _______ _______ _____ _____    ______ ____
ROOT
ATOM      1  F   UNL     1      37.190 -21.046 -18.001  0.00  0.00    -0.203 F 
ATOM      2  C   UNL     1      35.673 -23.608 -15.915  0.00  0.00    +0.059 C 
ATOM      3  C   UNL     1      35.023 -22.010 -18.144  0.00  0.00    +0.076 C 
ATOM      4  C   UNL     1      36.607 -22.703 -16.420  0.00  0.00    +0.046 C 
ATOM      5  C   UNL     1      34.418 -23.723 -16.512  0.00  0.00    +0.016 C 
ATOM      6  C   UNL     1      36.285 -21.912 -17.524  0.00  0.00    +0.155 C 
ATOM      7  C   UNL     1      34.097 -22.932 -17.616  0.00  0.00    +0.018 C 
ENDROOT
BRANCH   2  10
ATOM      8  O   UNL     1      36.585 -26.170 -13.494  0.00  0.00    -0.434 OA
ATOM      9  O   UNL     1      36.420 -26.550 -15.723  0.00  0.00    -0.226 OA
ATOM     10  N   UNL     1      36.002 -24.416 -14.790  0.00  0.00    -0.221 N 
ATOM     11  C   UNL     1      36.627 -25.015 -12.643  0.00  0.00    +0.210 C 
ATOM     12  C   UNL     1      35.914 -23.940 -13.436  0.00  0.00    +0.147 C 
ATOM     13  C   UNL     1      36.345 -25.766 -14.788  0.00  0.00    +0.409 C 
BRANCH  11  14
ATOM     14  C   UNL     1      38.082 -24.676 -12.346  0.00  0.00    +0.135 C 
BRANCH  14  16
ATOM     15  O   UNL     1      39.600 -24.324 -14.795  0.00  0.00    -0.275 OA
ATOM     16  N   UNL     1      38.960 -25.635 -12.982  0.00  0.00    -0.301 N 
ATOM     17  C   UNL     1      39.644 -25.371 -14.154  0.00  0.00    +0.223 C 
ATOM     18  C   UNL     1      40.506 -26.528 -14.583  0.00  0.00    +0.095 C 
ATOM     19  H   UNL     1      39.077 -26.517 -12.559  0.00  0.00    +0.150 HD
ENDBRANCH  14  16
ENDBRANCH  11  14
ENDBRANCH   2  10
BRANCH   3  21
ATOM     20  O   UNL     1      34.002 -19.865 -21.613  0.00  0.00    -0.350 OA
ATOM     21  N   UNL     1      34.698 -21.218 -19.250  0.00  0.00    -0.301 N 
ATOM     22  C   UNL     1      33.317 -21.257 -19.749  0.00  0.00    +0.123 C 
ATOM     23  C   UNL     1      35.718 -20.919 -20.261  0.00  0.00    +0.123 C 
ATOM     24  C   UNL     1      33.033 -20.009 -20.575  0.00  0.00    +0.164 C 
ATOM     25  C   UNL     1      35.306 -19.688 -21.060  0.00  0.00    +0.164 C 
ENDBRANCH   3  21
TORSDOF 4
ENDMDL
