MODEL 1
REMARK VINA RESULT:      -8.4      0.000      0.000
REMARK  Name = 57363
REMARK  2 active torsions:
REMARK  status: ('A' for Active; 'I' for Inactive)
REMARK    1  A    between atoms: C_8  and  C_24
REMARK    2  A    between atoms: N_23  and  C_26
REMARK                            x       y       z     vdW  Elec       q    Type
REMARK                         _______ _______ _______ _____ _____    ______ ____
ROOT
ATOM      1  O   UNL     1      30.969  -5.619 -22.908  0.00  0.00    -0.270 OA
ATOM      2  N   UNL     1      31.377  -7.503 -21.642  0.00  0.00    -0.302 N 
ATOM      3  C   UNL     1      32.304 -13.186 -21.351  0.00  0.00    +0.000 C 
ATOM      4  C   UNL     1      33.214 -13.893 -22.379  0.00  0.00    +0.008 C 
ATOM      5  C   UNL     1      32.532 -11.672 -21.293  0.00  0.00    +0.000 C 
ATOM      6  C   UNL     1      32.226 -11.070 -22.709  0.00  0.00    +0.005 C 
ATOM      7  C   UNL     1      32.379  -9.508 -22.714  0.00  0.00    +0.035 C 
ATOM      8  C   UNL     1      32.771 -15.354 -22.141  0.00  0.00    +0.076 C 
ATOM      9  C   UNL     1      32.876 -13.335 -23.769  0.00  0.00    +0.000 C 
ATOM     10  C   UNL     1      33.027 -11.803 -23.820  0.00  0.00    +0.000 C 
ATOM     11  C   UNL     1      32.491 -14.016 -20.085  0.00  0.00    +0.001 C 
ATOM     12  C   UNL     1      31.679 -11.015 -20.196  0.00  0.00    +0.002 C 
ATOM     13  C   UNL     1      32.615 -15.459 -20.609  0.00  0.00    +0.009 C 
ATOM     14  C   UNL     1      31.443  -8.955 -21.602  0.00  0.00    +0.075 C 
ATOM     15  C   UNL     1      31.782  -9.491 -20.214  0.00  0.00    +0.020 C 
ATOM     16  C   UNL     1      34.731 -13.721 -22.101  0.00  0.00    +0.000 C 
ATOM     17  C   UNL     1      33.853  -9.080 -22.509  0.00  0.00    +0.006 C 
ATOM     18  C   UNL     1      31.913  -8.862 -24.012  0.00  0.00    -0.021 C 
ATOM     19  C   UNL     1      31.361  -7.640 -24.063  0.00  0.00    +0.053 C 
ATOM     20  C   UNL     1      31.213  -6.820 -22.831  0.00  0.00    +0.246 C 
ATOM     21  H   UNL     1      31.451  -6.996 -20.801  0.00  0.00    +0.150 HD
ENDROOT
BRANCH   8  24
ATOM     22  O   UNL     1      34.146 -16.316 -23.836  0.00  0.00    -0.275 OA
ATOM     23  N   UNL     1      33.981 -17.386 -21.776  0.00  0.00    -0.307 N 
ATOM     24  C   UNL     1      33.709 -16.383 -22.690  0.00  0.00    +0.222 C 
ATOM     25  H   UNL     1      33.570 -17.330 -20.883  0.00  0.00    +0.149 HD
BRANCH  23  26
ATOM     26  C   UNL     1      34.841 -18.510 -22.067  0.00  0.00    +0.057 C 
ATOM     27  C   UNL     1      36.303 -18.052 -22.033  0.00  0.00    +0.020 C 
ATOM     28  C   UNL     1      34.615 -19.600 -21.014  0.00  0.00    +0.020 C 
ATOM     29  C   UNL     1      34.506 -19.058 -23.459  0.00  0.00    +0.020 C 
ENDBRANCH  23  26
ENDBRANCH   8  24
TORSDOF 2
ENDMDL
MODEL 2
REMARK VINA RESULT:      -7.8      2.275      3.580
REMARK  Name = 57363
REMARK  2 active torsions:
REMARK  status: ('A' for Active; 'I' for Inactive)
REMARK    1  A    between atoms: C_8  and  C_24
REMARK    2  A    between atoms: N_23  and  C_26
REMARK                            x       y       z     vdW  Elec       q    Type
REMARK                         _______ _______ _______ _____ _____    ______ ____
ROOT
ATOM      1  O   UNL     1      31.138  -2.390 -24.085  0.00  0.00    -0.270 OA
ATOM      2  N   UNL     1      31.670  -4.035 -22.559  0.00  0.00    -0.302 N 
ATOM      3  C   UNL     1      31.724  -9.608 -21.082  0.00  0.00    +0.000 C 
ATOM      4  C   UNL     1      32.079 -10.698 -22.117  0.00  0.00    +0.008 C 
ATOM      5  C   UNL     1      32.194  -8.211 -21.500  0.00  0.00    +0.000 C 
ATOM      6  C   UNL     1      31.500  -7.839 -22.856  0.00  0.00    +0.005 C 
ATOM      7  C   UNL     1      31.887  -6.390 -23.321  0.00  0.00    +0.035 C 
ATOM      8  C   UNL     1      31.525 -11.935 -21.376  0.00  0.00    +0.076 C 
ATOM      9  C   UNL     1      31.357 -10.354 -23.428  0.00  0.00    +0.000 C 
ATOM     10  C   UNL     1      31.722  -8.943 -23.926  0.00  0.00    +0.000 C 
ATOM     11  C   UNL     1      32.218 -10.197 -19.765  0.00  0.00    +0.001 C 
ATOM     12  C   UNL     1      31.909  -7.169 -20.407  0.00  0.00    +0.002 C 
ATOM     13  C   UNL     1      31.915 -11.701 -19.902  0.00  0.00    +0.009 C 
ATOM     14  C   UNL     1      31.514  -5.424 -22.160  0.00  0.00    +0.075 C 
ATOM     15  C   UNL     1      32.239  -5.747 -20.857  0.00  0.00    +0.020 C 
ATOM     16  C   UNL     1      33.601 -10.844 -22.381  0.00  0.00    +0.000 C 
ATOM     17  C   UNL     1      33.384  -6.297 -23.704  0.00  0.00    +0.006 C 
ATOM     18  C   UNL     1      31.095  -5.915 -24.532  0.00  0.00    -0.021 C 
ATOM     19  C   UNL     1      30.763  -4.630 -24.728  0.00  0.00    +0.053 C 
ATOM     20  C   UNL     1      31.200  -3.576 -23.774  0.00  0.00    +0.246 C 
ATOM     21  H   UNL     1      32.120  -3.408 -21.948  0.00  0.00    +0.150 HD
ENDROOT
BRANCH   8  24
ATOM     22  O   UNL     1      31.771 -13.631 -23.035  0.00  0.00    -0.275 OA
ATOM     23  N   UNL     1      32.764 -13.939 -20.953  0.00  0.00    -0.307 N 
ATOM     24  C   UNL     1      32.027 -13.245 -21.898  0.00  0.00    +0.222 C 
ATOM     25  H   UNL     1      32.903 -13.523 -20.071  0.00  0.00    +0.149 HD
BRANCH  23  26
ATOM     26  C   UNL     1      33.342 -15.240 -21.199  0.00  0.00    +0.057 C 
ATOM     27  C   UNL     1      33.737 -15.348 -22.676  0.00  0.00    +0.020 C 
ATOM     28  C   UNL     1      34.582 -15.412 -20.316  0.00  0.00    +0.020 C 
ATOM     29  C   UNL     1      32.311 -16.324 -20.863  0.00  0.00    +0.020 C 
ENDBRANCH  23  26
ENDBRANCH   8  24
TORSDOF 2
ENDMDL
MODEL 3
REMARK VINA RESULT:      -7.5      2.501      9.348
REMARK  Name = 57363
REMARK  2 active torsions:
REMARK  status: ('A' for Active; 'I' for Inactive)
REMARK    1  A    between atoms: C_8  and  C_24
REMARK    2  A    between atoms: N_23  and  C_26
REMARK                            x       y       z     vdW  Elec       q    Type
REMARK                         _______ _______ _______ _____ _____    ______ ____
ROOT
ATOM      1  O   UNL     1      32.997 -15.798 -21.465  0.00  0.00    -0.270 OA
ATOM      2  N   UNL     1      32.313 -13.726 -20.719  0.00  0.00    -0.302 N 
ATOM      3  C   UNL     1      32.217  -7.998 -21.370  0.00  0.00    +0.000 C 
ATOM      4  C   UNL     1      32.034  -7.363 -22.766  0.00  0.00    +0.008 C 
ATOM      5  C   UNL     1      31.768  -9.462 -21.315  0.00  0.00    +0.000 C 
ATOM      6  C   UNL     1      32.626 -10.282 -22.341  0.00  0.00    +0.005 C 
ATOM      7  C   UNL     1      32.263 -11.810 -22.300  0.00  0.00    +0.035 C 
ATOM      8  C   UNL     1      32.518  -5.929 -22.453  0.00  0.00    +0.076 C 
ATOM      9  C   UNL     1      32.913  -8.140 -23.756  0.00  0.00    +0.000 C 
ATOM     10  C   UNL     1      32.579  -9.643 -23.756  0.00  0.00    +0.000 C 
ATOM     11  C   UNL     1      31.569  -6.985 -20.433  0.00  0.00    +0.001 C 
ATOM     12  C   UNL     1      31.877 -10.033 -19.893  0.00  0.00    +0.002 C 
ATOM     13  C   UNL     1      31.930  -5.625 -21.060  0.00  0.00    +0.009 C 
ATOM     14  C   UNL     1      32.452 -12.283 -20.831  0.00  0.00    +0.075 C 
ATOM     15  C   UNL     1      31.570 -11.528 -19.840  0.00  0.00    +0.020 C 
ATOM     16  C   UNL     1      30.565  -7.355 -23.265  0.00  0.00    +0.000 C 
ATOM     17  C   UNL     1      30.829 -12.068 -22.821  0.00  0.00    +0.006 C 
ATOM     18  C   UNL     1      33.196 -12.671 -23.141  0.00  0.00    -0.021 C 
ATOM     19  C   UNL     1      33.516 -13.933 -22.815  0.00  0.00    +0.053 C 
ATOM     20  C   UNL     1      32.927 -14.581 -21.612  0.00  0.00    +0.246 C 
ATOM     21  H   UNL     1      31.768 -14.101 -19.990  0.00  0.00    +0.150 HD
ENDROOT
BRANCH   8  24
ATOM     22  O   UNL     1      32.327  -5.079 -24.673  0.00  0.00    -0.275 OA
ATOM     23  N   UNL     1      31.557  -3.784 -22.899  0.00  0.00    -0.307 N 
ATOM     24  C   UNL     1      32.127  -4.907 -23.474  0.00  0.00    +0.222 C 
ATOM     25  H   UNL     1      31.447  -3.763 -21.921  0.00  0.00    +0.149 HD
BRANCH  23  26
ATOM     26  C   UNL     1      31.112  -2.642 -23.666  0.00  0.00    +0.057 C 
ATOM     27  C   UNL     1      30.405  -3.128 -24.935  0.00  0.00    +0.020 C 
ATOM     28  C   UNL     1      30.142  -1.816 -22.815  0.00  0.00    +0.020 C 
ATOM     29  C   UNL     1      32.325  -1.786 -24.049  0.00  0.00    +0.020 C 
ENDBRANCH  23  26
ENDBRANCH   8  24
TORSDOF 2
ENDMDL
MODEL 4
REMARK VINA RESULT:      -7.4      2.220      8.862
REMARK  Name = 57363
REMARK  2 active torsions:
REMARK  status: ('A' for Active; 'I' for Inactive)
REMARK    1  A    between atoms: C_8  and  C_24
REMARK    2  A    between atoms: N_23  and  C_26
REMARK                            x       y       z     vdW  Elec       q    Type
REMARK                         _______ _______ _______ _____ _____    ______ ____
ROOT
ATOM      1  O   UNL     1      35.178 -22.071 -20.755  0.00  0.00    -0.270 OA
ATOM      2  N   UNL     1      35.369 -20.198 -22.087  0.00  0.00    -0.302 N 
ATOM      3  C   UNL     1      33.496 -14.952 -23.575  0.00  0.00    +0.000 C 
ATOM      4  C   UNL     1      33.069 -13.929 -22.499  0.00  0.00    +0.008 C 
ATOM      5  C   UNL     1      34.373 -16.078 -23.015  0.00  0.00    +0.000 C 
ATOM      6  C   UNL     1      33.557 -16.841 -21.914  0.00  0.00    +0.005 C 
ATOM      7  C   UNL     1      34.370 -18.051 -21.333  0.00  0.00    +0.035 C 
ATOM      8  C   UNL     1      32.274 -12.948 -23.389  0.00  0.00    +0.076 C 
ATOM      9  C   UNL     1      32.230 -14.672 -21.450  0.00  0.00    +0.000 C 
ATOM     10  C   UNL     1      32.999 -15.862 -20.844  0.00  0.00    +0.000 C 
ATOM     11  C   UNL     1      34.037 -14.076 -24.699  0.00  0.00    +0.001 C 
ATOM     12  C   UNL     1      34.856 -17.022 -24.127  0.00  0.00    +0.002 C 
ATOM     13  C   UNL     1      33.111 -12.846 -24.682  0.00  0.00    +0.009 C 
ATOM     14  C   UNL     1      34.764 -18.955 -22.536  0.00  0.00    +0.075 C 
ATOM     15  C   UNL     1      35.612 -18.230 -23.577  0.00  0.00    +0.020 C 
ATOM     16  C   UNL     1      34.257 -13.212 -21.805  0.00  0.00    +0.000 C 
ATOM     17  C   UNL     1      35.604 -17.574 -20.528  0.00  0.00    +0.006 C 
ATOM     18  C   UNL     1      33.552 -18.932 -20.398  0.00  0.00    -0.021 C 
ATOM     19  C   UNL     1      33.745 -20.255 -20.286  0.00  0.00    +0.053 C 
ATOM     20  C   UNL     1      34.822 -20.935 -21.054  0.00  0.00    +0.246 C 
ATOM     21  H   UNL     1      36.187 -20.521 -22.529  0.00  0.00    +0.150 HD
ENDROOT
BRANCH   8  24
ATOM     22  O   UNL     1      31.213 -11.463 -21.853  0.00  0.00    -0.275 OA
ATOM     23  N   UNL     1      32.777 -10.609 -23.351  0.00  0.00    -0.307 N 
ATOM     24  C   UNL     1      32.022 -11.611 -22.765  0.00  0.00    +0.222 C 
ATOM     25  H   UNL     1      33.395 -10.852 -24.077  0.00  0.00    +0.149 HD
BRANCH  23  26
ATOM     26  C   UNL     1      32.703  -9.223 -22.946  0.00  0.00    +0.057 C 
ATOM     27  C   UNL     1      32.514  -9.149 -21.427  0.00  0.00    +0.020 C 
ATOM     28  C   UNL     1      34.003  -8.516 -23.342  0.00  0.00    +0.020 C 
ATOM     29  C   UNL     1      31.514  -8.554 -23.645  0.00  0.00    +0.020 C 
ENDBRANCH  23  26
ENDBRANCH   8  24
TORSDOF 2
ENDMDL
MODEL 5
REMARK VINA RESULT:      -7.2      7.033     13.035
REMARK  Name = 57363
REMARK  2 active torsions:
REMARK  status: ('A' for Active; 'I' for Inactive)
REMARK    1  A    between atoms: C_8  and  C_24
REMARK    2  A    between atoms: N_23  and  C_26
REMARK                            x       y       z     vdW  Elec       q    Type
REMARK                         _______ _______ _______ _____ _____    ______ ____
ROOT
ATOM      1  O   UNL     1      35.973 -25.277 -10.947  0.00  0.00    -0.270 OA
ATOM      2  N   UNL     1      34.713 -24.863 -12.834  0.00  0.00    -0.302 N 
ATOM      3  C   UNL     1      33.954 -21.966 -17.760  0.00  0.00    +0.000 C 
ATOM      4  C   UNL     1      35.143 -21.687 -18.706  0.00  0.00    +0.008 C 
ATOM      5  C   UNL     1      34.231 -23.103 -16.771  0.00  0.00    +0.000 C 
ATOM      6  C   UNL     1      35.469 -22.706 -15.893  0.00  0.00    +0.005 C 
ATOM      7  C   UNL     1      35.779 -23.800 -14.810  0.00  0.00    +0.035 C 
ATOM      8  C   UNL     1      34.519 -20.565 -19.566  0.00  0.00    +0.076 C 
ATOM      9  C   UNL     1      36.337 -21.252 -17.845  0.00  0.00    +0.000 C 
ATOM     10  C   UNL     1      36.683 -22.306 -16.776  0.00  0.00    +0.000 C 
ATOM     11  C   UNL     1      32.767 -22.079 -18.710  0.00  0.00    +0.001 C 
ATOM     12  C   UNL     1      32.997 -23.416 -15.911  0.00  0.00    +0.002 C 
ATOM     13  C   UNL     1      33.064 -21.025 -19.794  0.00  0.00    +0.009 C 
ATOM     14  C   UNL     1      34.480 -23.998 -13.978  0.00  0.00    +0.075 C 
ATOM     15  C   UNL     1      33.291 -24.447 -14.822  0.00  0.00    +0.020 C 
ATOM     16  C   UNL     1      35.547 -22.901 -19.585  0.00  0.00    +0.000 C 
ATOM     17  C   UNL     1      36.269 -25.118 -15.457  0.00  0.00    +0.006 C 
ATOM     18  C   UNL     1      36.852 -23.374 -13.816  0.00  0.00    -0.021 C 
ATOM     19  C   UNL     1      36.858 -23.772 -12.535  0.00  0.00    +0.053 C 
ATOM     20  C   UNL     1      35.819 -24.703 -12.021  0.00  0.00    +0.246 C 
ATOM     21  H   UNL     1      34.068 -25.580 -12.634  0.00  0.00    +0.150 HD
ENDROOT
BRANCH   8  24
ATOM     22  O   UNL     1      36.063 -21.083 -21.309  0.00  0.00    -0.275 OA
ATOM     23  N   UNL     1      34.883 -19.080 -21.407  0.00  0.00    -0.307 N 
ATOM     24  C   UNL     1      35.240 -20.296 -20.849  0.00  0.00    +0.222 C 
ATOM     25  H   UNL     1      34.207 -18.533 -20.944  0.00  0.00    +0.149 HD
BRANCH  23  26
ATOM     26  C   UNL     1      35.452 -18.575 -22.635  0.00  0.00    +0.057 C 
ATOM     27  C   UNL     1      34.963 -19.430 -23.809  0.00  0.00    +0.020 C 
ATOM     28  C   UNL     1      35.009 -17.122 -22.832  0.00  0.00    +0.020 C 
ATOM     29  C   UNL     1      36.981 -18.644 -22.552  0.00  0.00    +0.020 C 
ENDBRANCH  23  26
ENDBRANCH   8  24
TORSDOF 2
ENDMDL
MODEL 6
REMARK VINA RESULT:      -7.2     12.267     15.419
REMARK  Name = 57363
REMARK  2 active torsions:
REMARK  status: ('A' for Active; 'I' for Inactive)
REMARK    1  A    between atoms: C_8  and  C_24
REMARK    2  A    between atoms: N_23  and  C_26
REMARK                            x       y       z     vdW  Elec       q    Type
REMARK                         _______ _______ _______ _____ _____    ______ ____
ROOT
ATOM      1  O   UNL     1      40.997 -25.865 -13.711  0.00  0.00    -0.270 OA
ATOM      2  N   UNL     1      38.842 -25.564 -12.945  0.00  0.00    -0.302 N 
ATOM      3  C   UNL     1      33.529 -23.479 -13.758  0.00  0.00    +0.000 C 
ATOM      4  C   UNL     1      32.838 -23.588 -15.135  0.00  0.00    +0.008 C 
ATOM      5  C   UNL     1      34.697 -24.457 -13.596  0.00  0.00    +0.000 C 
ATOM      6  C   UNL     1      35.764 -24.144 -14.703  0.00  0.00    +0.005 C 
ATOM      7  C   UNL     1      37.024 -25.071 -14.564  0.00  0.00    +0.035 C 
ATOM      8  C   UNL     1      31.722 -22.538 -14.937  0.00  0.00    +0.076 C 
ATOM      9  C   UNL     1      33.874 -23.233 -16.211  0.00  0.00    +0.000 C 
ATOM     10  C   UNL     1      35.123 -24.130 -16.118  0.00  0.00    +0.000 C 
ATOM     11  C   UNL     1      32.366 -23.538 -12.774  0.00  0.00    +0.001 C 
ATOM     12  C   UNL     1      35.300 -24.388 -12.184  0.00  0.00    +0.002 C 
ATOM     13  C   UNL     1      31.244 -22.760 -13.487  0.00  0.00    +0.009 C 
ATOM     14  C   UNL     1      37.570 -24.883 -13.120  0.00  0.00    +0.075 C 
ATOM     15  C   UNL     1      36.554 -25.250 -12.043  0.00  0.00    +0.020 C 
ATOM     16  C   UNL     1      32.238 -24.988 -15.429  0.00  0.00    +0.000 C 
ATOM     17  C   UNL     1      36.681 -26.548 -14.876  0.00  0.00    +0.006 C 
ATOM     18  C   UNL     1      38.163 -24.680 -15.497  0.00  0.00    -0.021 C 
ATOM     19  C   UNL     1      39.456 -24.843 -15.178  0.00  0.00    +0.053 C 
ATOM     20  C   UNL     1      39.848 -25.468 -13.886  0.00  0.00    +0.246 C 
ATOM     21  H   UNL     1      38.990 -26.106 -12.137  0.00  0.00    +0.150 HD
ENDROOT
BRANCH   8  24
ATOM     22  O   UNL     1      30.792 -22.505 -17.134  0.00  0.00    -0.275 OA
ATOM     23  N   UNL     1      29.379 -22.845 -15.316  0.00  0.00    -0.307 N 
ATOM     24  C   UNL     1      30.603 -22.631 -15.927  0.00  0.00    +0.222 C 
ATOM     25  H   UNL     1      29.354 -22.931 -14.335  0.00  0.00    +0.149 HD
BRANCH  23  26
ATOM     26  C   UNL     1      28.137 -22.950 -16.047  0.00  0.00    +0.057 C 
ATOM     27  C   UNL     1      28.217 -22.086 -17.310  0.00  0.00    +0.020 C 
ATOM     28  C   UNL     1      27.908 -24.415 -16.435  0.00  0.00    +0.020 C 
ATOM     29  C   UNL     1      26.984 -22.462 -15.163  0.00  0.00    +0.020 C 
ENDBRANCH  23  26
ENDBRANCH   8  24
TORSDOF 2
ENDMDL
MODEL 7
REMARK VINA RESULT:      -7.0      2.028      8.744
REMARK  Name = 57363
REMARK  2 active torsions:
REMARK  status: ('A' for Active; 'I' for Inactive)
REMARK    1  A    between atoms: C_8  and  C_24
REMARK    2  A    between atoms: N_23  and  C_26
REMARK                            x       y       z     vdW  Elec       q    Type
REMARK                         _______ _______ _______ _____ _____    ______ ____
ROOT
ATOM      1  O   UNL     1      33.833 -17.270 -22.229  0.00  0.00    -0.270 OA
ATOM      2  N   UNL     1      32.854 -15.262 -21.655  0.00  0.00    -0.302 N 
ATOM      3  C   UNL     1      32.716  -9.512 -22.051  0.00  0.00    +0.000 C 
ATOM      4  C   UNL     1      32.962  -8.806 -23.402  0.00  0.00    +0.008 C 
ATOM      5  C   UNL     1      32.340 -10.989 -22.208  0.00  0.00    +0.000 C 
ATOM      6  C   UNL     1      33.517 -11.727 -22.936  0.00  0.00    +0.005 C 
ATOM      7  C   UNL     1      33.229 -13.263 -23.082  0.00  0.00    +0.035 C 
ATOM      8  C   UNL     1      33.256  -7.379 -22.887  0.00  0.00    +0.076 C 
ATOM      9  C   UNL     1      34.147  -9.501 -24.088  0.00  0.00    +0.000 C 
ATOM     10  C   UNL     1      33.899 -11.011 -24.262  0.00  0.00    +0.000 C 
ATOM     11  C   UNL     1      31.757  -8.572 -21.330  0.00  0.00    +0.001 C 
ATOM     12  C   UNL     1      32.011 -11.635 -20.853  0.00  0.00    +0.002 C 
ATOM     13  C   UNL     1      32.238  -7.169 -21.747  0.00  0.00    +0.009 C 
ATOM     14  C   UNL     1      32.957 -13.813 -21.652  0.00  0.00    +0.075 C 
ATOM     15  C   UNL     1      31.771 -13.140 -20.968  0.00  0.00    +0.020 C 
ATOM     16  C   UNL     1      31.733  -8.812 -24.348  0.00  0.00    +0.000 C 
ATOM     17  C   UNL     1      32.051 -13.533 -24.049  0.00  0.00    +0.006 C 
ATOM     18  C   UNL     1      34.420 -14.050 -23.612  0.00  0.00    -0.021 C 
ATOM     19  C   UNL     1      34.675 -15.319 -23.256  0.00  0.00    +0.053 C 
ATOM     20  C   UNL     1      33.760 -16.049 -22.338  0.00  0.00    +0.246 C 
ATOM     21  H   UNL     1      32.121 -15.693 -21.158  0.00  0.00    +0.150 HD
ENDROOT
BRANCH   8  24
ATOM     22  O   UNL     1      33.992  -6.224 -24.840  0.00  0.00    -0.275 OA
ATOM     23  N   UNL     1      32.091  -5.467 -23.731  0.00  0.00    -0.307 N 
ATOM     24  C   UNL     1      33.168  -6.313 -23.934  0.00  0.00    +0.222 C 
ATOM     25  H   UNL     1      31.496  -5.641 -22.966  0.00  0.00    +0.149 HD
BRANCH  23  26
ATOM     26  C   UNL     1      31.796  -4.342 -24.590  0.00  0.00    +0.057 C 
ATOM     27  C   UNL     1      32.792  -4.318 -25.754  0.00  0.00    +0.020 C 
ATOM     28  C   UNL     1      30.370  -4.487 -25.131  0.00  0.00    +0.020 C 
ATOM     29  C   UNL     1      31.915  -3.044 -23.783  0.00  0.00    +0.020 C 
ENDBRANCH  23  26
ENDBRANCH   8  24
TORSDOF 2
ENDMDL
MODEL 8
REMARK VINA RESULT:      -7.0      1.576      8.285
REMARK  Name = 57363
REMARK  2 active torsions:
REMARK  status: ('A' for Active; 'I' for Inactive)
REMARK    1  A    between atoms: C_8  and  C_24
REMARK    2  A    between atoms: N_23  and  C_26
REMARK                            x       y       z     vdW  Elec       q    Type
REMARK                         _______ _______ _______ _____ _____    ______ ____
ROOT
ATOM      1  O   UNL     1      34.662 -17.750 -23.375  0.00  0.00    -0.270 OA
ATOM      2  N   UNL     1      33.536 -16.168 -22.131  0.00  0.00    -0.302 N 
ATOM      3  C   UNL     1      32.420 -10.631 -20.977  0.00  0.00    +0.000 C 
ATOM      4  C   UNL     1      32.245  -9.604 -22.118  0.00  0.00    +0.008 C 
ATOM      5  C   UNL     1      32.253 -12.080 -21.446  0.00  0.00    +0.000 C 
ATOM      6  C   UNL     1      33.337 -12.376 -22.539  0.00  0.00    +0.005 C 
ATOM      7  C   UNL     1      33.267 -13.867 -23.028  0.00  0.00    +0.035 C 
ATOM      8  C   UNL     1      32.421  -8.300 -21.308  0.00  0.00    +0.076 C 
ATOM      9  C   UNL     1      33.339  -9.869 -23.161  0.00  0.00    +0.000 C 
ATOM     10  C   UNL     1      33.297 -11.320 -23.677  0.00  0.00    +0.000 C 
ATOM     11  C   UNL     1      31.512 -10.094 -19.877  0.00  0.00    +0.001 C 
ATOM     12  C   UNL     1      32.340 -13.067 -20.271  0.00  0.00    +0.002 C 
ATOM     13  C   UNL     1      31.664  -8.565 -19.990  0.00  0.00    +0.009 C 
ATOM     14  C   UNL     1      33.410 -14.767 -21.767  0.00  0.00    +0.075 C 
ATOM     15  C   UNL     1      32.317 -14.523 -20.730  0.00  0.00    +0.020 C 
ATOM     16  C   UNL     1      30.852  -9.651 -22.798  0.00  0.00    +0.000 C 
ATOM     17  C   UNL     1      31.959 -14.150 -23.806  0.00  0.00    +0.006 C 
ATOM     18  C   UNL     1      34.417 -14.252 -23.949  0.00  0.00    -0.021 C 
ATOM     19  C   UNL     1      34.938 -15.488 -23.989  0.00  0.00    +0.053 C 
ATOM     20  C   UNL     1      34.377 -16.578 -23.146  0.00  0.00    +0.246 C 
ATOM     21  H   UNL     1      33.009 -16.841 -21.641  0.00  0.00    +0.150 HD
ENDROOT
BRANCH   8  24
ATOM     22  O   UNL     1      31.134  -6.299 -21.484  0.00  0.00    -0.275 OA
ATOM     23  N   UNL     1      32.476  -6.938 -23.276  0.00  0.00    -0.307 N 
ATOM     24  C   UNL     1      31.936  -7.068 -22.007  0.00  0.00    +0.222 C 
ATOM     25  H   UNL     1      33.113  -7.622 -23.586  0.00  0.00    +0.149 HD
BRANCH  23  26
ATOM     26  C   UNL     1      32.151  -5.846 -24.165  0.00  0.00    +0.057 C 
ATOM     27  C   UNL     1      31.995  -4.558 -23.350  0.00  0.00    +0.020 C 
ATOM     28  C   UNL     1      33.282  -5.680 -25.186  0.00  0.00    +0.020 C 
ATOM     29  C   UNL     1      30.838  -6.158 -24.892  0.00  0.00    +0.020 C 
ENDBRANCH  23  26
ENDBRANCH   8  24
TORSDOF 2
ENDMDL
MODEL 9
REMARK VINA RESULT:      -6.9      2.639      8.810
REMARK  Name = 57363
REMARK  2 active torsions:
REMARK  status: ('A' for Active; 'I' for Inactive)
REMARK    1  A    between atoms: C_8  and  C_24
REMARK    2  A    between atoms: N_23  and  C_26
REMARK                            x       y       z     vdW  Elec       q    Type
REMARK                         _______ _______ _______ _____ _____    ______ ____
ROOT
ATOM      1  O   UNL     1      33.048 -15.818 -20.879  0.00  0.00    -0.270 OA
ATOM      2  N   UNL     1      32.282 -13.671 -20.527  0.00  0.00    -0.302 N 
ATOM      3  C   UNL     1      32.278  -8.096 -21.999  0.00  0.00    +0.000 C 
ATOM      4  C   UNL     1      32.268  -7.670 -23.483  0.00  0.00    +0.008 C 
ATOM      5  C   UNL     1      31.823  -9.545 -21.790  0.00  0.00    +0.000 C 
ATOM      6  C   UNL     1      32.798 -10.489 -22.575  0.00  0.00    +0.005 C 
ATOM      7  C   UNL     1      32.430 -12.001 -22.360  0.00  0.00    +0.035 C 
ATOM      8  C   UNL     1      32.713  -6.199 -23.323  0.00  0.00    +0.076 C 
ATOM      9  C   UNL     1      33.260  -8.566 -24.237  0.00  0.00    +0.000 C 
ATOM     10  C   UNL     1      32.926 -10.059 -24.063  0.00  0.00    +0.000 C 
ATOM     11  C   UNL     1      31.522  -6.970 -21.303  0.00  0.00    +0.001 C 
ATOM     12  C   UNL     1      31.755  -9.905 -20.298  0.00  0.00    +0.002 C 
ATOM     13  C   UNL     1      31.959  -5.708 -22.069  0.00  0.00    +0.009 C 
ATOM     14  C   UNL     1      32.437 -12.257 -20.826  0.00  0.00    +0.075 C 
ATOM     15  C   UNL     1      31.442 -11.383 -20.069  0.00  0.00    +0.020 C 
ATOM     16  C   UNL     1      30.871  -7.756 -24.153  0.00  0.00    +0.000 C 
ATOM     17  C   UNL     1      31.070 -12.353 -23.009  0.00  0.00    +0.006 C 
ATOM     18  C   UNL     1      33.458 -12.958 -22.949  0.00  0.00    -0.021 C 
ATOM     19  C   UNL     1      33.733 -14.156 -22.409  0.00  0.00    +0.053 C 
ATOM     20  C   UNL     1      32.999 -14.635 -21.207  0.00  0.00    +0.246 C 
ATOM     21  H   UNL     1      31.651 -13.947 -19.823  0.00  0.00    +0.150 HD
ENDROOT
BRANCH   8  24
ATOM     22  O   UNL     1      31.379  -4.764 -24.684  0.00  0.00    -0.275 OA
ATOM     23  N   UNL     1      33.531  -5.304 -25.386  0.00  0.00    -0.307 N 
ATOM     24  C   UNL     1      32.452  -5.339 -24.519  0.00  0.00    +0.222 C 
ATOM     25  H   UNL     1      34.342  -5.808 -25.144  0.00  0.00    +0.149 HD
BRANCH  23  26
ATOM     26  C   UNL     1      33.526  -4.563 -26.627  0.00  0.00    +0.057 C 
ATOM     27  C   UNL     1      33.112  -3.114 -26.350  0.00  0.00    +0.020 C 
ATOM     28  C   UNL     1      34.933  -4.594 -27.233  0.00  0.00    +0.020 C 
ATOM     29  C   UNL     1      32.529  -5.207 -27.597  0.00  0.00    +0.020 C 
ENDBRANCH  23  26
ENDBRANCH   8  24
TORSDOF 2
ENDMDL
