MODEL 1
REMARK VINA RESULT:      -7.1      0.000      0.000
REMARK  Name = 6917715
REMARK  3 active torsions:
REMARK  status: ('A' for Active; 'I' for Inactive)
REMARK    1  A    between atoms: C_2  and  C_22
REMARK    2  A    between atoms: C_6  and  O_20
REMARK    3  A    between atoms: C_6  and  C_24
REMARK                            x       y       z     vdW  Elec       q    Type
REMARK                         _______ _______ _______ _____ _____    ______ ____
ROOT
ATOM      1  O   UNL     1      27.477 -23.670 -15.721  0.00  0.00    -0.291 OA
ATOM      2  C   UNL     1      35.988 -23.647 -15.266  0.00  0.00    +0.037 C 
ATOM      3  C   UNL     1      34.977 -23.900 -14.121  0.00  0.00    +0.004 C 
ATOM      4  C   UNL     1      33.674 -23.094 -14.274  0.00  0.00    +0.004 C 
ATOM      5  C   UNL     1      32.996 -23.491 -15.629  0.00  0.00    +0.022 C 
ATOM      6  C   UNL     1      37.185 -24.518 -14.780  0.00  0.00    +0.142 C 
ATOM      7  C   UNL     1      35.818 -23.725 -12.860  0.00  0.00    +0.004 C 
ATOM      8  C   UNL     1      35.318 -24.048 -16.598  0.00  0.00    +0.025 C 
ATOM      9  C   UNL     1      37.220 -24.240 -13.254  0.00  0.00    +0.039 C 
ATOM     10  C   UNL     1      31.579 -22.848 -15.811  0.00  0.00    +0.023 C 
ATOM     11  C   UNL     1      34.013 -23.276 -16.766  0.00  0.00    -0.044 C 
ATOM     12  C   UNL     1      32.731 -23.343 -13.092  0.00  0.00    +0.005 C 
ATOM     13  C   UNL     1      31.450 -22.541 -13.255  0.00  0.00    +0.022 C 
ATOM     14  C   UNL     1      30.742 -22.890 -14.536  0.00  0.00    -0.041 C 
ATOM     15  C   UNL     1      30.829 -23.560 -16.964  0.00  0.00    +0.012 C 
ATOM     16  C   UNL     1      33.867 -22.446 -17.811  0.00  0.00    -0.009 C 
ATOM     17  C   UNL     1      29.380 -23.118 -17.067  0.00  0.00    +0.069 C 
ATOM     18  C   UNL     1      29.429 -23.174 -14.511  0.00  0.00    +0.029 C 
ATOM     19  C   UNL     1      28.668 -23.375 -15.765  0.00  0.00    +0.173 C 
ENDROOT
BRANCH   6  20
ATOM     20  O   UNL     1      38.418 -24.117 -15.363  0.00  0.00    -0.375 OA
ATOM     21  H   UNL     1      38.321 -23.232 -15.746  0.00  0.00    +0.211 HD
ENDBRANCH   6  20
BRANCH   2  22
ATOM     22  C   UNL     1      36.442 -22.159 -15.373  0.00  0.00    +0.004 C 
ATOM     23  C   UNL     1      37.143 -21.923 -16.683  0.00  0.00    +0.000 C 
ENDBRANCH   2  22
BRANCH   6  24
ATOM     24  C   UNL     1      37.007 -25.962 -15.023  0.00  0.00    -0.053 C 
ATOM     25  C   UNL     1      36.862 -27.138 -15.221  0.00  0.00    -0.012 C 
ENDBRANCH   6  24
TORSDOF 3
ENDMDL
MODEL 2
REMARK VINA RESULT:      -6.6     19.028     21.288
REMARK  Name = 6917715
REMARK  3 active torsions:
REMARK  status: ('A' for Active; 'I' for Inactive)
REMARK    1  A    between atoms: C_2  and  C_22
REMARK    2  A    between atoms: C_6  and  O_20
REMARK    3  A    between atoms: C_6  and  C_24
REMARK                            x       y       z     vdW  Elec       q    Type
REMARK                         _______ _______ _______ _____ _____    ______ ____
ROOT
ATOM      1  O   UNL     1      31.945 -11.016 -22.379  0.00  0.00    -0.291 OA
ATOM      2  C   UNL     1      32.964  -3.708 -26.645  0.00  0.00    +0.037 C 
ATOM      3  C   UNL     1      33.895  -4.945 -26.645  0.00  0.00    +0.004 C 
ATOM      4  C   UNL     1      33.921  -5.684 -25.295  0.00  0.00    +0.004 C 
ATOM      5  C   UNL     1      32.467  -6.160 -24.958  0.00  0.00    +0.022 C 
ATOM      6  C   UNL     1      33.225  -3.161 -28.080  0.00  0.00    +0.142 C 
ATOM      7  C   UNL     1      35.200  -4.406 -27.225  0.00  0.00    +0.004 C 
ATOM      8  C   UNL     1      31.532  -4.184 -26.320  0.00  0.00    +0.025 C 
ATOM      9  C   UNL     1      34.758  -3.333 -28.244  0.00  0.00    +0.039 C 
ATOM     10  C   UNL     1      32.405  -7.066 -23.681  0.00  0.00    +0.023 C 
ATOM     11  C   UNL     1      31.532  -4.937 -24.994  0.00  0.00    -0.044 C 
ATOM     12  C   UNL     1      34.892  -6.869 -25.334  0.00  0.00    +0.005 C 
ATOM     13  C   UNL     1      34.909  -7.589 -23.996  0.00  0.00    +0.022 C 
ATOM     14  C   UNL     1      33.538  -8.085 -23.623  0.00  0.00    -0.041 C 
ATOM     15  C   UNL     1      31.036  -7.787 -23.621  0.00  0.00    +0.012 C 
ATOM     16  C   UNL     1      30.801  -4.470 -23.969  0.00  0.00    -0.009 C 
ATOM     17  C   UNL     1      30.981  -8.828 -22.516  0.00  0.00    +0.069 C 
ATOM     18  C   UNL     1      33.381  -9.358 -23.222  0.00  0.00    +0.029 C 
ATOM     19  C   UNL     1      32.080  -9.840 -22.706  0.00  0.00    +0.173 C 
ENDROOT
BRANCH   6  20
ATOM     20  O   UNL     1      32.887  -1.786 -28.204  0.00  0.00    -0.375 OA
ATOM     21  H   UNL     1      33.071  -1.331 -27.368  0.00  0.00    +0.211 HD
ENDBRANCH   6  20
BRANCH   2  22
ATOM     22  C   UNL     1      33.372  -2.626 -25.597  0.00  0.00    +0.004 C 
ATOM     23  C   UNL     1      32.175  -1.800 -25.211  0.00  0.00    +0.000 C 
ENDBRANCH   2  22
BRANCH   6  24
ATOM     24  C   UNL     1      32.519  -3.907 -29.139  0.00  0.00    -0.053 C 
ATOM     25  C   UNL     1      31.945  -4.516 -30.000  0.00  0.00    -0.012 C 
ENDBRANCH   6  24
TORSDOF 3
ENDMDL
MODEL 3
REMARK VINA RESULT:      -6.6      9.256     11.774
REMARK  Name = 6917715
REMARK  3 active torsions:
REMARK  status: ('A' for Active; 'I' for Inactive)
REMARK    1  A    between atoms: C_2  and  C_22
REMARK    2  A    between atoms: C_6  and  O_20
REMARK    3  A    between atoms: C_6  and  C_24
REMARK                            x       y       z     vdW  Elec       q    Type
REMARK                         _______ _______ _______ _____ _____    ______ ____
ROOT
ATOM      1  O   UNL     1      33.748 -10.276 -25.168  0.00  0.00    -0.291 OA
ATOM      2  C   UNL     1      34.506 -18.220 -22.172  0.00  0.00    +0.037 C 
ATOM      3  C   UNL     1      34.758 -17.722 -23.617  0.00  0.00    +0.004 C 
ATOM      4  C   UNL     1      33.832 -16.564 -24.029  0.00  0.00    +0.004 C 
ATOM      5  C   UNL     1      34.060 -15.366 -23.046  0.00  0.00    +0.022 C 
ATOM      6  C   UNL     1      35.514 -19.406 -22.105  0.00  0.00    +0.142 C 
ATOM      7  C   UNL     1      34.758 -19.007 -24.440  0.00  0.00    +0.004 C 
ATOM      8  C   UNL     1      34.740 -17.038 -21.207  0.00  0.00    +0.025 C 
ATOM      9  C   UNL     1      35.361 -20.072 -23.497  0.00  0.00    +0.039 C 
ATOM     10  C   UNL     1      33.284 -14.074 -23.472  0.00  0.00    +0.023 C 
ATOM     11  C   UNL     1      33.846 -15.868 -21.606  0.00  0.00    -0.044 C 
ATOM     12  C   UNL     1      34.090 -16.143 -25.479  0.00  0.00    +0.005 C 
ATOM     13  C   UNL     1      33.169 -15.000 -25.874  0.00  0.00    +0.022 C 
ATOM     14  C   UNL     1      33.353 -13.810 -24.972  0.00  0.00    -0.041 C 
ATOM     15  C   UNL     1      33.833 -12.855 -22.690  0.00  0.00    +0.012 C 
ATOM     16  C   UNL     1      32.926 -15.415 -20.738  0.00  0.00    -0.009 C 
ATOM     17  C   UNL     1      33.260 -11.542 -23.194  0.00  0.00    +0.069 C 
ATOM     18  C   UNL     1      33.522 -12.590 -25.512  0.00  0.00    +0.029 C 
ATOM     19  C   UNL     1      33.556 -11.379 -24.661  0.00  0.00    +0.173 C 
ENDROOT
BRANCH   6  20
ATOM     20  O   UNL     1      35.177 -20.345 -21.092  0.00  0.00    -0.375 OA
ATOM     21  H   UNL     1      34.882 -19.873 -20.298  0.00  0.00    +0.211 HD
ENDBRANCH   6  20
BRANCH   2  22
ATOM     22  C   UNL     1      33.059 -18.758 -21.947  0.00  0.00    +0.004 C 
ATOM     23  C   UNL     1      32.945 -19.391 -20.588  0.00  0.00    +0.000 C 
ENDBRANCH   2  22
BRANCH   6  24
ATOM     24  C   UNL     1      36.913 -18.986 -21.899  0.00  0.00    -0.053 C 
ATOM     25  C   UNL     1      38.052 -18.645 -21.732  0.00  0.00    -0.012 C 
ENDBRANCH   6  24
TORSDOF 3
ENDMDL
MODEL 4
REMARK VINA RESULT:      -5.3      1.535      6.831
REMARK  Name = 6917715
REMARK  3 active torsions:
REMARK  status: ('A' for Active; 'I' for Inactive)
REMARK    1  A    between atoms: C_2  and  C_22
REMARK    2  A    between atoms: C_6  and  O_20
REMARK    3  A    between atoms: C_6  and  C_24
REMARK                            x       y       z     vdW  Elec       q    Type
REMARK                         _______ _______ _______ _____ _____    ______ ____
ROOT
ATOM      1  O   UNL     1      40.055 -25.889 -15.013  0.00  0.00    -0.291 OA
ATOM      2  C   UNL     1      31.858 -23.587 -14.627  0.00  0.00    +0.037 C 
ATOM      3  C   UNL     1      32.818 -23.479 -15.837  0.00  0.00    +0.004 C 
ATOM      4  C   UNL     1      34.275 -23.195 -15.431  0.00  0.00    +0.004 C 
ATOM      5  C   UNL     1      34.772 -24.358 -14.507  0.00  0.00    +0.022 C 
ATOM      6  C   UNL     1      30.500 -23.786 -15.365  0.00  0.00    +0.142 C 
ATOM      7  C   UNL     1      32.103 -22.508 -16.773  0.00  0.00    +0.004 C 
ATOM      8  C   UNL     1      32.347 -24.740 -13.725  0.00  0.00    +0.025 C 
ATOM      9  C   UNL     1      30.601 -22.794 -16.553  0.00  0.00    +0.039 C 
ATOM     10  C   UNL     1      36.298 -24.254 -14.165  0.00  0.00    +0.023 C 
ATOM     11  C   UNL     1      33.798 -24.492 -13.322  0.00  0.00    -0.044 C 
ATOM     12  C   UNL     1      35.173 -23.050 -16.664  0.00  0.00    +0.005 C 
ATOM     13  C   UNL     1      36.608 -22.770 -16.250  0.00  0.00    +0.022 C 
ATOM     14  C   UNL     1      37.149 -23.864 -15.369  0.00  0.00    -0.041 C 
ATOM     15  C   UNL     1      36.792 -25.598 -13.575  0.00  0.00    +0.012 C 
ATOM     16  C   UNL     1      34.107 -24.348 -12.023  0.00  0.00    -0.009 C 
ATOM     17  C   UNL     1      38.301 -25.630 -13.402  0.00  0.00    +0.069 C 
ATOM     18  C   UNL     1      38.346 -24.407 -15.648  0.00  0.00    +0.029 C 
ATOM     19  C   UNL     1      38.977 -25.376 -14.724  0.00  0.00    +0.173 C 
ENDROOT
BRANCH   6  20
ATOM     20  O   UNL     1      29.387 -23.439 -14.551  0.00  0.00    -0.375 OA
ATOM     21  H   UNL     1      29.080 -22.550 -14.785  0.00  0.00    +0.211 HD
ENDBRANCH   6  20
BRANCH   2  22
ATOM     22  C   UNL     1      31.794 -22.285 -13.770  0.00  0.00    +0.004 C 
ATOM     23  C   UNL     1      31.149 -22.569 -12.441  0.00  0.00    +0.000 C 
ENDBRANCH   2  22
BRANCH   6  24
ATOM     24  C   UNL     1      30.294 -25.156 -15.871  0.00  0.00    -0.053 C 
ATOM     25  C   UNL     1      30.125 -26.272 -16.282  0.00  0.00    -0.012 C 
ENDBRANCH   6  24
TORSDOF 3
ENDMDL
MODEL 5
REMARK VINA RESULT:      -5.0      4.663      7.925
REMARK  Name = 6917715
REMARK  3 active torsions:
REMARK  status: ('A' for Active; 'I' for Inactive)
REMARK    1  A    between atoms: C_2  and  C_22
REMARK    2  A    between atoms: C_6  and  O_20
REMARK    3  A    between atoms: C_6  and  C_24
REMARK                            x       y       z     vdW  Elec       q    Type
REMARK                         _______ _______ _______ _____ _____    ______ ____
ROOT
ATOM      1  O   UNL     1      35.740 -23.718 -14.322  0.00  0.00    -0.291 OA
ATOM      2  C   UNL     1      35.028 -19.170 -21.496  0.00  0.00    +0.037 C 
ATOM      3  C   UNL     1      33.897 -19.605 -20.532  0.00  0.00    +0.004 C 
ATOM      4  C   UNL     1      34.156 -20.971 -19.871  0.00  0.00    +0.004 C 
ATOM      5  C   UNL     1      35.494 -20.889 -19.060  0.00  0.00    +0.022 C 
ATOM      6  C   UNL     1      34.435 -17.836 -22.039  0.00  0.00    +0.142 C 
ATOM      7  C   UNL     1      32.630 -19.404 -21.358  0.00  0.00    +0.004 C 
ATOM      8  C   UNL     1      36.342 -19.083 -20.690  0.00  0.00    +0.025 C 
ATOM      9  C   UNL     1      32.937 -18.181 -22.249  0.00  0.00    +0.039 C 
ATOM     10  C   UNL     1      35.772 -22.177 -18.213  0.00  0.00    +0.023 C 
ATOM     11  C   UNL     1      36.613 -20.420 -20.008  0.00  0.00    -0.044 C 
ATOM     12  C   UNL     1      32.988 -21.375 -18.966  0.00  0.00    +0.005 C 
ATOM     13  C   UNL     1      33.256 -22.724 -18.320  0.00  0.00    +0.022 C 
ATOM     14  C   UNL     1      34.524 -22.705 -17.512  0.00  0.00    -0.041 C 
ATOM     15  C   UNL     1      36.885 -21.888 -17.176  0.00  0.00    +0.012 C 
ATOM     16  C   UNL     1      37.728 -21.104 -20.315  0.00  0.00    -0.009 C 
ATOM     17  C   UNL     1      37.068 -23.034 -16.195  0.00  0.00    +0.069 C 
ATOM     18  C   UNL     1      34.516 -23.180 -16.255  0.00  0.00    +0.029 C 
ATOM     19  C   UNL     1      35.771 -23.316 -15.483  0.00  0.00    +0.173 C 
ENDROOT
BRANCH   6  20
ATOM     20  O   UNL     1      35.011 -17.454 -23.282  0.00  0.00    -0.375 OA
ATOM     21  H   UNL     1      34.681 -16.579 -23.536  0.00  0.00    +0.211 HD
ENDBRANCH   6  20
BRANCH   2  22
ATOM     22  C   UNL     1      35.244 -20.160 -22.682  0.00  0.00    +0.004 C 
ATOM     23  C   UNL     1      35.127 -19.433 -23.994  0.00  0.00    +0.000 C 
ENDBRANCH   2  22
BRANCH   6  24
ATOM     24  C   UNL     1      34.563 -16.703 -21.103  0.00  0.00    -0.053 C 
ATOM     25  C   UNL     1      34.667 -15.781 -20.341  0.00  0.00    -0.012 C 
ENDBRANCH   6  24
TORSDOF 3
ENDMDL
MODEL 6
REMARK VINA RESULT:      -4.7     14.854     17.333
REMARK  Name = 6917715
REMARK  3 active torsions:
REMARK  status: ('A' for Active; 'I' for Inactive)
REMARK    1  A    between atoms: C_2  and  C_22
REMARK    2  A    between atoms: C_6  and  O_20
REMARK    3  A    between atoms: C_6  and  C_24
REMARK                            x       y       z     vdW  Elec       q    Type
REMARK                         _______ _______ _______ _____ _____    ______ ____
ROOT
ATOM      1  O   UNL     1      33.080 -15.443 -25.247  0.00  0.00    -0.291 OA
ATOM      2  C   UNL     1      32.530  -7.332 -22.685  0.00  0.00    +0.037 C 
ATOM      3  C   UNL     1      33.242  -7.883 -23.945  0.00  0.00    +0.004 C 
ATOM      4  C   UNL     1      33.850  -9.282 -23.734  0.00  0.00    +0.004 C 
ATOM      5  C   UNL     1      32.702 -10.272 -23.341  0.00  0.00    +0.022 C 
ATOM      6  C   UNL     1      32.117  -5.919 -23.193  0.00  0.00    +0.142 C 
ATOM      7  C   UNL     1      34.149  -6.733 -24.372  0.00  0.00    +0.004 C 
ATOM      8  C   UNL     1      31.395  -8.307 -22.307  0.00  0.00    +0.025 C 
ATOM      9  C   UNL     1      33.363  -5.458 -23.994  0.00  0.00    +0.039 C 
ATOM     10  C   UNL     1      33.185 -11.761 -23.261  0.00  0.00    +0.023 C 
ATOM     11  C   UNL     1      31.969  -9.707 -22.110  0.00  0.00    -0.044 C 
ATOM     12  C   UNL     1      34.582  -9.759 -24.993  0.00  0.00    +0.005 C 
ATOM     13  C   UNL     1      35.178 -11.140 -24.772  0.00  0.00    +0.022 C 
ATOM     14  C   UNL     1      34.118 -12.143 -24.404  0.00  0.00    -0.041 C 
ATOM     15  C   UNL     1      31.957 -12.705 -23.236  0.00  0.00    +0.012 C 
ATOM     16  C   UNL     1      31.860 -10.303 -20.912  0.00  0.00    -0.009 C 
ATOM     17  C   UNL     1      32.353 -14.167 -23.354  0.00  0.00    +0.069 C 
ATOM     18  C   UNL     1      34.068 -13.319 -25.052  0.00  0.00    +0.029 C 
ATOM     19  C   UNL     1      33.139 -14.388 -24.620  0.00  0.00    +0.173 C 
ENDROOT
BRANCH   6  20
ATOM     20  O   UNL     1      31.876  -5.010 -22.127  0.00  0.00    -0.375 OA
ATOM     21  H   UNL     1      32.520  -4.286 -22.168  0.00  0.00    +0.211 HD
ENDBRANCH   6  20
BRANCH   2  22
ATOM     22  C   UNL     1      33.479  -7.181 -21.455  0.00  0.00    +0.004 C 
ATOM     23  C   UNL     1      32.673  -7.034 -20.193  0.00  0.00    +0.000 C 
ENDBRANCH   2  22
BRANCH   6  24
ATOM     24  C   UNL     1      30.931  -5.926 -24.071  0.00  0.00    -0.053 C 
ATOM     25  C   UNL     1      29.966  -5.933 -24.786  0.00  0.00    -0.012 C 
ENDBRANCH   6  24
TORSDOF 3
ENDMDL
MODEL 7
REMARK VINA RESULT:      -4.4      5.161      8.020
REMARK  Name = 6917715
REMARK  3 active torsions:
REMARK  status: ('A' for Active; 'I' for Inactive)
REMARK    1  A    between atoms: C_2  and  C_22
REMARK    2  A    between atoms: C_6  and  O_20
REMARK    3  A    between atoms: C_6  and  C_24
REMARK                            x       y       z     vdW  Elec       q    Type
REMARK                         _______ _______ _______ _____ _____    ______ ____
ROOT
ATOM      1  O   UNL     1      34.714 -25.004 -16.184  0.00  0.00    -0.291 OA
ATOM      2  C   UNL     1      34.688 -18.787 -22.014  0.00  0.00    +0.037 C 
ATOM      3  C   UNL     1      35.905 -19.582 -21.480  0.00  0.00    +0.004 C 
ATOM      4  C   UNL     1      35.761 -19.988 -20.002  0.00  0.00    +0.004 C 
ATOM      5  C   UNL     1      34.483 -20.879 -19.850  0.00  0.00    +0.022 C 
ATOM      6  C   UNL     1      35.175 -18.470 -23.460  0.00  0.00    +0.142 C 
ATOM      7  C   UNL     1      37.099 -18.733 -21.907  0.00  0.00    +0.004 C 
ATOM      8  C   UNL     1      33.433 -19.674 -21.870  0.00  0.00    +0.025 C 
ATOM      9  C   UNL     1      36.669 -18.109 -23.253  0.00  0.00    +0.039 C 
ATOM     10  C   UNL     1      34.329 -21.483 -18.412  0.00  0.00    +0.023 C 
ATOM     11  C   UNL     1      33.277 -20.106 -20.415  0.00  0.00    -0.044 C 
ATOM     12  C   UNL     1      37.010 -20.728 -19.510  0.00  0.00    +0.005 C 
ATOM     13  C   UNL     1      36.856 -21.122 -18.051  0.00  0.00    +0.022 C 
ATOM     14  C   UNL     1      35.648 -21.995 -17.842  0.00  0.00    -0.041 C 
ATOM     15  C   UNL     1      33.280 -22.622 -18.435  0.00  0.00    +0.012 C 
ATOM     16  C   UNL     1      32.178 -19.744 -19.733  0.00  0.00    -0.009 C 
ATOM     17  C   UNL     1      33.224 -23.379 -17.119  0.00  0.00    +0.069 C 
ATOM     18  C   UNL     1      35.769 -23.137 -17.144  0.00  0.00    +0.029 C 
ATOM     19  C   UNL     1      34.580 -23.945 -16.791  0.00  0.00    +0.173 C 
ENDROOT
BRANCH   6  20
ATOM     20  O   UNL     1      34.493 -17.360 -24.029  0.00  0.00    -0.375 OA
ATOM     21  H   UNL     1      34.215 -17.578 -24.931  0.00  0.00    +0.211 HD
ENDBRANCH   6  20
BRANCH   2  22
ATOM     22  C   UNL     1      34.437 -17.451 -21.249  0.00  0.00    +0.004 C 
ATOM     23  C   UNL     1      33.096 -16.882 -21.624  0.00  0.00    +0.000 C 
ENDBRANCH   2  22
BRANCH   6  24
ATOM     24  C   UNL     1      35.058 -19.609 -24.390  0.00  0.00    -0.053 C 
ATOM     25  C   UNL     1      34.963 -20.537 -25.147  0.00  0.00    -0.012 C 
ENDBRANCH   6  24
TORSDOF 3
ENDMDL
MODEL 8
REMARK VINA RESULT:      -4.1      2.788      5.706
REMARK  Name = 6917715
REMARK  3 active torsions:
REMARK  status: ('A' for Active; 'I' for Inactive)
REMARK    1  A    between atoms: C_2  and  C_22
REMARK    2  A    between atoms: C_6  and  O_20
REMARK    3  A    between atoms: C_6  and  C_24
REMARK                            x       y       z     vdW  Elec       q    Type
REMARK                         _______ _______ _______ _____ _____    ______ ____
ROOT
ATOM      1  O   UNL     1      36.457 -18.730 -21.278  0.00  0.00    -0.291 OA
ATOM      2  C   UNL     1      33.900 -24.095 -15.169  0.00  0.00    +0.037 C 
ATOM      3  C   UNL     1      34.945 -22.957 -15.057  0.00  0.00    +0.004 C 
ATOM      4  C   UNL     1      35.745 -22.740 -16.353  0.00  0.00    +0.004 C 
ATOM      5  C   UNL     1      34.745 -22.382 -17.504  0.00  0.00    +0.022 C 
ATOM      6  C   UNL     1      33.344 -24.109 -13.713  0.00  0.00    +0.142 C 
ATOM      7  C   UNL     1      35.690 -23.286 -13.767  0.00  0.00    +0.004 C 
ATOM      8  C   UNL     1      32.913 -23.733 -16.298  0.00  0.00    +0.025 C 
ATOM      9  C   UNL     1      34.621 -23.923 -12.852  0.00  0.00    +0.039 C 
ATOM     10  C   UNL     1      35.468 -21.980 -18.835  0.00  0.00    +0.023 C 
ATOM     11  C   UNL     1      33.683 -23.494 -17.593  0.00  0.00    -0.044 C 
ATOM     12  C   UNL     1      36.795 -21.638 -16.174  0.00  0.00    +0.005 C 
ATOM     13  C   UNL     1      37.578 -21.434 -17.460  0.00  0.00    +0.022 C 
ATOM     14  C   UNL     1      36.670 -21.071 -18.604  0.00  0.00    -0.041 C 
ATOM     15  C   UNL     1      34.458 -21.297 -19.790  0.00  0.00    +0.012 C 
ATOM     16  C   UNL     1      33.443 -24.276 -18.658  0.00  0.00    -0.009 C 
ATOM     17  C   UNL     1      35.134 -20.710 -21.018  0.00  0.00    +0.069 C 
ATOM     18  C   UNL     1      36.972 -20.017 -19.381  0.00  0.00    +0.029 C 
ATOM     19  C   UNL     1      36.189 -19.719 -20.601  0.00  0.00    +0.173 C 
ENDROOT
BRANCH   6  20
ATOM     20  O   UNL     1      32.726 -25.346 -13.382  0.00  0.00    -0.375 OA
ATOM     21  H   UNL     1      33.391 -26.052 -13.388  0.00  0.00    +0.211 HD
ENDBRANCH   6  20
BRANCH   2  22
ATOM     22  C   UNL     1      34.531 -25.484 -15.494  0.00  0.00    +0.004 C 
ATOM     23  C   UNL     1      36.023 -25.434 -15.305  0.00  0.00    +0.000 C 
ENDBRANCH   2  22
BRANCH   6  24
ATOM     24  C   UNL     1      32.386 -23.024 -13.432  0.00  0.00    -0.053 C 
ATOM     25  C   UNL     1      31.605 -22.140 -13.204  0.00  0.00    -0.012 C 
ENDBRANCH   6  24
TORSDOF 3
ENDMDL
