MODEL 1
REMARK VINA RESULT:      -5.3      0.000      0.000
REMARK  Name = 5289089
REMARK  3 active torsions:
REMARK  status: ('A' for Active; 'I' for Inactive)
REMARK    1  A    between atoms: C_2  and  C_3
REMARK    2  A    between atoms: C_2  and  C_7
REMARK    3  A    between atoms: C_7  and  O_8
REMARK                            x       y       z     vdW  Elec       q    Type
REMARK                         _______ _______ _______ _____ _____    ______ ____
ROOT
ATOM      1  O   UNL     1      38.973 -24.105 -15.055  0.00  0.00    -0.280 OA
ATOM      2  C   UNL     1      39.276 -25.070 -14.372  0.00  0.00    +0.270 C 
ENDROOT
BRANCH   2   3
ATOM      3  C   UNL     1      38.585 -25.460 -13.120  0.00  0.00    +0.044 C 
ATOM      4  C   UNL     1      37.513 -26.261 -13.167  0.00  0.00    -0.022 C 
ATOM      5  C   UNL     1      36.950 -26.805 -14.438  0.00  0.00    +0.031 C 
ENDBRANCH   2   3
BRANCH   2   7
ATOM      6  O   UNL     1      41.140 -26.557 -14.039  0.00  0.00    -0.241 OA
ATOM      7  C   UNL     1      40.424 -25.954 -14.812  0.00  0.00    +0.378 C 
BRANCH   7   8
ATOM      8  O   UNL     1      40.512 -25.952 -16.152  0.00  0.00    -0.475 OA
ATOM      9  H   UNL     1      39.752 -25.780 -16.671  0.00  0.00    +0.296 HD
ENDBRANCH   7   8
ENDBRANCH   2   7
TORSDOF 3
ENDMDL
MODEL 2
REMARK VINA RESULT:      -5.2     10.738     12.020
REMARK  Name = 5289089
REMARK  3 active torsions:
REMARK  status: ('A' for Active; 'I' for Inactive)
REMARK    1  A    between atoms: C_2  and  C_3
REMARK    2  A    between atoms: C_2  and  C_7
REMARK    3  A    between atoms: C_7  and  O_8
REMARK                            x       y       z     vdW  Elec       q    Type
REMARK                         _______ _______ _______ _____ _____    ______ ____
ROOT
ATOM      1  O   UNL     1      27.709 -24.124 -17.657  0.00  0.00    -0.280 OA
ATOM      2  C   UNL     1      28.025 -23.174 -16.958  0.00  0.00    +0.270 C 
ENDROOT
BRANCH   2   3
ATOM      3  C   UNL     1      29.401 -22.909 -16.477  0.00  0.00    +0.044 C 
ATOM      4  C   UNL     1      29.934 -23.673 -15.515  0.00  0.00    -0.022 C 
ATOM      5  C   UNL     1      29.210 -24.812 -14.875  0.00  0.00    +0.031 C 
ENDBRANCH   2   3
BRANCH   2   7
ATOM      6  O   UNL     1      26.305 -22.277 -15.532  0.00  0.00    -0.241 OA
ATOM      7  C   UNL     1      26.962 -22.177 -16.547  0.00  0.00    +0.378 C 
BRANCH   7   8
ATOM      8  O   UNL     1      26.874 -21.201 -17.465  0.00  0.00    -0.475 OA
ATOM      9  H   UNL     1      27.111 -21.372 -18.355  0.00  0.00    +0.296 HD
ENDBRANCH   7   8
ENDBRANCH   2   7
TORSDOF 3
ENDMDL
MODEL 3
REMARK VINA RESULT:      -5.2      1.707      1.900
REMARK  Name = 5289089
REMARK  3 active torsions:
REMARK  status: ('A' for Active; 'I' for Inactive)
REMARK    1  A    between atoms: C_2  and  C_3
REMARK    2  A    between atoms: C_2  and  C_7
REMARK    3  A    between atoms: C_7  and  O_8
REMARK                            x       y       z     vdW  Elec       q    Type
REMARK                         _______ _______ _______ _____ _____    ______ ____
ROOT
ATOM      1  O   UNL     1      38.461 -26.941 -14.689  0.00  0.00    -0.280 OA
ATOM      2  C   UNL     1      38.923 -25.873 -14.318  0.00  0.00    +0.270 C 
ENDROOT
BRANCH   2   3
ATOM      3  C   UNL     1      38.273 -24.975 -13.335  0.00  0.00    +0.044 C 
ATOM      4  C   UNL     1      37.447 -24.008 -13.755  0.00  0.00    -0.022 C 
ATOM      5  C   UNL     1      37.127 -23.768 -15.194  0.00  0.00    +0.031 C 
ENDBRANCH   2   3
BRANCH   2   7
ATOM      6  O   UNL     1      40.998 -24.653 -14.291  0.00  0.00    -0.241 OA
ATOM      7  C   UNL     1      40.254 -25.414 -14.875  0.00  0.00    +0.378 C 
BRANCH   7   8
ATOM      8  O   UNL     1      40.460 -25.969 -16.080  0.00  0.00    -0.475 OA
ATOM      9  H   UNL     1      39.819 -25.873 -16.756  0.00  0.00    +0.296 HD
ENDBRANCH   7   8
ENDBRANCH   2   7
TORSDOF 3
ENDMDL
MODEL 4
REMARK VINA RESULT:      -5.1     10.455     11.774
REMARK  Name = 5289089
REMARK  3 active torsions:
REMARK  status: ('A' for Active; 'I' for Inactive)
REMARK    1  A    between atoms: C_2  and  C_3
REMARK    2  A    between atoms: C_2  and  C_7
REMARK    3  A    between atoms: C_7  and  O_8
REMARK                            x       y       z     vdW  Elec       q    Type
REMARK                         _______ _______ _______ _____ _____    ______ ____
ROOT
ATOM      1  O   UNL     1      42.773 -16.146 -16.192  0.00  0.00    -0.280 OA
ATOM      2  C   UNL     1      41.757 -15.479 -16.306  0.00  0.00    +0.270 C 
ENDROOT
BRANCH   2   3
ATOM      3  C   UNL     1      41.388 -14.717 -17.523  0.00  0.00    +0.044 C 
ATOM      4  C   UNL     1      41.813 -13.456 -17.677  0.00  0.00    -0.022 C 
ATOM      5  C   UNL     1      42.660 -12.745 -16.674  0.00  0.00    +0.031 C 
ENDBRANCH   2   3
BRANCH   2   7
ATOM      6  O   UNL     1      40.844 -14.584 -14.267  0.00  0.00    -0.241 OA
ATOM      7  C   UNL     1      40.783 -15.415 -15.149  0.00  0.00    +0.378 C 
BRANCH   7   8
ATOM      8  O   UNL     1      39.877 -16.400 -15.261  0.00  0.00    -0.475 OA
ATOM      9  H   UNL     1      38.998 -16.264 -14.968  0.00  0.00    +0.296 HD
ENDBRANCH   7   8
ENDBRANCH   2   7
TORSDOF 3
ENDMDL
MODEL 5
REMARK VINA RESULT:      -5.1     10.069     11.346
REMARK  Name = 5289089
REMARK  3 active torsions:
REMARK  status: ('A' for Active; 'I' for Inactive)
REMARK    1  A    between atoms: C_2  and  C_3
REMARK    2  A    between atoms: C_2  and  C_7
REMARK    3  A    between atoms: C_7  and  O_8
REMARK                            x       y       z     vdW  Elec       q    Type
REMARK                         _______ _______ _______ _____ _____    ______ ____
ROOT
ATOM      1  O   UNL     1      28.415 -21.772 -15.057  0.00  0.00    -0.280 OA
ATOM      2  C   UNL     1      28.436 -22.761 -15.773  0.00  0.00    +0.270 C 
ENDROOT
BRANCH   2   3
ATOM      3  C   UNL     1      29.124 -24.029 -15.432  0.00  0.00    +0.044 C 
ATOM      4  C   UNL     1      30.432 -24.169 -15.681  0.00  0.00    -0.022 C 
ATOM      5  C   UNL     1      31.270 -23.100 -16.299  0.00  0.00    +0.031 C 
ENDBRANCH   2   3
BRANCH   2   7
ATOM      6  O   UNL     1      27.595 -23.689 -17.829  0.00  0.00    -0.241 OA
ATOM      7  C   UNL     1      27.709 -22.725 -17.101  0.00  0.00    +0.378 C 
BRANCH   7   8
ATOM      8  O   UNL     1      27.236 -21.489 -17.328  0.00  0.00    -0.475 OA
ATOM      9  H   UNL     1      26.954 -20.957 -16.610  0.00  0.00    +0.296 HD
ENDBRANCH   7   8
ENDBRANCH   2   7
TORSDOF 3
ENDMDL
MODEL 6
REMARK VINA RESULT:      -5.0      3.830      4.925
REMARK  Name = 5289089
REMARK  3 active torsions:
REMARK  status: ('A' for Active; 'I' for Inactive)
REMARK    1  A    between atoms: C_2  and  C_3
REMARK    2  A    between atoms: C_2  and  C_7
REMARK    3  A    between atoms: C_7  and  O_8
REMARK                            x       y       z     vdW  Elec       q    Type
REMARK                         _______ _______ _______ _____ _____    ______ ____
ROOT
ATOM      1  O   UNL     1      37.564 -22.653 -11.183  0.00  0.00    -0.280 OA
ATOM      2  C   UNL     1      36.805 -23.423 -11.749  0.00  0.00    +0.270 C 
ENDROOT
BRANCH   2   3
ATOM      3  C   UNL     1      36.738 -23.606 -13.218  0.00  0.00    +0.044 C 
ATOM      4  C   UNL     1      37.624 -24.397 -13.836  0.00  0.00    -0.022 C 
ATOM      5  C   UNL     1      38.709 -25.132 -13.120  0.00  0.00    +0.031 C 
ENDBRANCH   2   3
BRANCH   2   7
ATOM      6  O   UNL     1      35.902 -24.328  -9.709  0.00  0.00    -0.241 OA
ATOM      7  C   UNL     1      35.863 -24.271 -10.921  0.00  0.00    +0.378 C 
BRANCH   7   8
ATOM      8  O   UNL     1      35.012 -24.927 -11.727  0.00  0.00    -0.475 OA
ATOM      9  H   UNL     1      35.333 -25.582 -12.314  0.00  0.00    +0.296 HD
ENDBRANCH   7   8
ENDBRANCH   2   7
TORSDOF 3
ENDMDL
MODEL 7
REMARK VINA RESULT:      -4.9      9.266     10.695
REMARK  Name = 5289089
REMARK  3 active torsions:
REMARK  status: ('A' for Active; 'I' for Inactive)
REMARK    1  A    between atoms: C_2  and  C_3
REMARK    2  A    between atoms: C_2  and  C_7
REMARK    3  A    between atoms: C_7  and  O_8
REMARK                            x       y       z     vdW  Elec       q    Type
REMARK                         _______ _______ _______ _____ _____    ______ ____
ROOT
ATOM      1  O   UNL     1      28.840 -24.914 -15.384  0.00  0.00    -0.280 OA
ATOM      2  C   UNL     1      29.019 -23.731 -15.627  0.00  0.00    +0.270 C 
ENDROOT
BRANCH   2   3
ATOM      3  C   UNL     1      29.879 -22.832 -14.822  0.00  0.00    +0.044 C 
ATOM      4  C   UNL     1      31.186 -22.732 -15.096  0.00  0.00    -0.022 C 
ATOM      5  C   UNL     1      31.855 -23.492 -16.194  0.00  0.00    +0.031 C 
ENDBRANCH   2   3
BRANCH   2   7
ATOM      6  O   UNL     1      28.369 -21.928 -17.084  0.00  0.00    -0.241 OA
ATOM      7  C   UNL     1      28.338 -23.115 -16.831  0.00  0.00    +0.378 C 
BRANCH   7   8
ATOM      8  O   UNL     1      27.715 -24.070 -17.541  0.00  0.00    -0.475 OA
ATOM      9  H   UNL     1      28.153 -24.477 -18.262  0.00  0.00    +0.296 HD
ENDBRANCH   7   8
ENDBRANCH   2   7
TORSDOF 3
ENDMDL
MODEL 8
REMARK VINA RESULT:      -4.9     10.224     11.012
REMARK  Name = 5289089
REMARK  3 active torsions:
REMARK  status: ('A' for Active; 'I' for Inactive)
REMARK    1  A    between atoms: C_2  and  C_3
REMARK    2  A    between atoms: C_2  and  C_7
REMARK    3  A    between atoms: C_7  and  O_8
REMARK                            x       y       z     vdW  Elec       q    Type
REMARK                         _______ _______ _______ _____ _____    ______ ____
ROOT
ATOM      1  O   UNL     1      34.814 -19.456 -23.201  0.00  0.00    -0.280 OA
ATOM      2  C   UNL     1      35.123 -19.127 -22.066  0.00  0.00    +0.270 C 
ENDROOT
BRANCH   2   3
ATOM      3  C   UNL     1      35.263 -20.069 -20.930  0.00  0.00    +0.044 C 
ATOM      4  C   UNL     1      34.180 -20.467 -20.251  0.00  0.00    -0.022 C 
ATOM      5  C   UNL     1      32.795 -20.009 -20.572  0.00  0.00    +0.031 C 
ENDBRANCH   2   3
BRANCH   2   7
ATOM      6  O   UNL     1      35.271 -17.173 -20.669  0.00  0.00    -0.241 OA
ATOM      7  C   UNL     1      35.397 -17.668 -21.770  0.00  0.00    +0.378 C 
BRANCH   7   8
ATOM      8  O   UNL     1      35.784 -17.040 -22.892  0.00  0.00    -0.475 OA
ATOM      9  H   UNL     1      36.660 -17.142 -23.207  0.00  0.00    +0.296 HD
ENDBRANCH   7   8
ENDBRANCH   2   7
TORSDOF 3
ENDMDL
MODEL 9
REMARK VINA RESULT:      -4.8     10.471     11.346
REMARK  Name = 5289089
REMARK  3 active torsions:
REMARK  status: ('A' for Active; 'I' for Inactive)
REMARK    1  A    between atoms: C_2  and  C_3
REMARK    2  A    between atoms: C_2  and  C_7
REMARK    3  A    between atoms: C_7  and  O_8
REMARK                            x       y       z     vdW  Elec       q    Type
REMARK                         _______ _______ _______ _____ _____    ______ ____
ROOT
ATOM      1  O   UNL     1      35.312 -17.029 -20.607  0.00  0.00    -0.280 OA
ATOM      2  C   UNL     1      35.474 -17.966 -21.372  0.00  0.00    +0.270 C 
ENDROOT
BRANCH   2   3
ATOM      3  C   UNL     1      35.762 -19.356 -20.945  0.00  0.00    +0.044 C 
ATOM      4  C   UNL     1      34.757 -20.181 -20.625  0.00  0.00    -0.022 C 
ATOM      5  C   UNL     1      33.319 -19.781 -20.672  0.00  0.00    +0.031 C 
ENDBRANCH   2   3
BRANCH   2   7
ATOM      6  O   UNL     1      34.975 -18.563 -23.650  0.00  0.00    -0.241 OA
ATOM      7  C   UNL     1      35.368 -17.727 -22.863  0.00  0.00    +0.378 C 
BRANCH   7   8
ATOM      8  O   UNL     1      35.773 -16.480 -23.155  0.00  0.00    -0.475 OA
ATOM      9  H   UNL     1      36.575 -16.345 -23.619  0.00  0.00    +0.296 HD
ENDBRANCH   7   8
ENDBRANCH   2   7
TORSDOF 3
ENDMDL
