MODEL 1
REMARK VINA RESULT:      -5.6      0.000      0.000
REMARK  Name = 5960
REMARK  6 active torsions:
REMARK  status: ('A' for Active; 'I' for Inactive)
REMARK    1  A    between atoms: CA_1  and  N_2
REMARK    2  A    between atoms: CA_1  and  C_7
REMARK    3  A    between atoms: CA_1  and  CB_10
REMARK    4  A    between atoms: C_7  and  O_8
REMARK    5  A    between atoms: CB_10  and  CG_12
REMARK    6  A    between atoms: CG_12  and  OD1_13
REMARK                            x       y       z     vdW  Elec       q    Type
REMARK                         _______ _______ _______ _____ _____    ______ ____
ROOT
ATOM      1  CA  ASP A   1      38.803 -25.430 -14.328  0.00  0.00    +0.047 C 
ENDROOT
BRANCH   1   2
ATOM      2  N   ASP A   1      38.346 -24.583 -15.430  0.00  0.00    +0.389 N 
ATOM      3  H1  ASP A   1      37.328 -24.601 -15.475  0.00  0.00    -0.088 HD
ATOM      4  H2  ASP A   1      38.732 -24.931 -16.308  0.00  0.00    -0.088 HD
ATOM      5  H3  ASP A   1      38.663 -23.625 -15.277  0.00  0.00    -0.088 HD
ENDBRANCH   1   2
BRANCH   1   7
ATOM      6  OXT ASP A   1      40.973 -26.495 -13.991  0.00  0.00    -0.253 OA
ATOM      7  C   ASP A   1      40.154 -25.988 -14.746  0.00  0.00    +0.293 C 
BRANCH   7   8
ATOM      8  O   ASP A   1      40.356 -25.887 -16.087  0.00  0.00    -0.482 OA
ATOM      9  H   ASP A   1      41.183 -25.592 -16.415  0.00  0.00    +0.295 HD
ENDBRANCH   7   8
ENDBRANCH   1   7
BRANCH   1  10
ATOM     10  CB  ASP A   1      37.771 -26.533 -14.059  0.00  0.00    +0.098 C 
BRANCH  10  12
ATOM     11  OD2 ASP A   1      36.841 -27.292 -16.186  0.00  0.00    -0.250 OA
ATOM     12  CG  ASP A   1      36.740 -26.639 -15.159  0.00  0.00    +0.312 C 
BRANCH  12  13
ATOM     13  OD1 ASP A   1      35.651 -25.888 -14.849  0.00  0.00    -0.480 OA
ATOM     14  HD1 ASP A   1      35.627 -24.980 -15.082  0.00  0.00    +0.295 HD
ENDBRANCH  12  13
ENDBRANCH  10  12
ENDBRANCH   1  10
TORSDOF 6
ENDMDL
MODEL 2
REMARK VINA RESULT:      -5.2      1.923      2.232
REMARK  Name = 5960
REMARK  6 active torsions:
REMARK  status: ('A' for Active; 'I' for Inactive)
REMARK    1  A    between atoms: CA_1  and  N_2
REMARK    2  A    between atoms: CA_1  and  C_7
REMARK    3  A    between atoms: CA_1  and  CB_10
REMARK    4  A    between atoms: C_7  and  O_8
REMARK    5  A    between atoms: CB_10  and  CG_12
REMARK    6  A    between atoms: CG_12  and  OD1_13
REMARK                            x       y       z     vdW  Elec       q    Type
REMARK                         _______ _______ _______ _____ _____    ______ ____
ROOT
ATOM      1  CA  ASP A   1      38.519 -25.518 -14.642  0.00  0.00    +0.047 C 
ENDROOT
BRANCH   1   2
ATOM      2  N   ASP A   1      38.236 -26.950 -14.543  0.00  0.00    +0.389 N 
ATOM      3  H1  ASP A   1      37.229 -27.103 -14.585  0.00  0.00    -0.088 HD
ATOM      4  H2  ASP A   1      38.598 -27.307 -13.657  0.00  0.00    -0.088 HD
ATOM      5  H3  ASP A   1      38.688 -27.441 -15.315  0.00  0.00    -0.088 HD
ENDBRANCH   1   2
BRANCH   1   7
ATOM      6  OXT ASP A   1      40.799 -24.847 -14.087  0.00  0.00    -0.253 OA
ATOM      7  C   ASP A   1      40.018 -25.390 -14.858  0.00  0.00    +0.293 C 
BRANCH   7   8
ATOM      8  O   ASP A   1      40.421 -25.977 -16.017  0.00  0.00    -0.482 OA
ATOM      9  H   ASP A   1      40.625 -26.892 -16.033  0.00  0.00    +0.295 HD
ENDBRANCH   7   8
ENDBRANCH   1   7
BRANCH   1  10
ATOM     10  CB  ASP A   1      38.047 -24.807 -13.368  0.00  0.00    +0.098 C 
BRANCH  10  12
ATOM     11  OD2 ASP A   1      37.089 -26.318 -11.705  0.00  0.00    -0.250 OA
ATOM     12  CG  ASP A   1      36.949 -25.564 -12.656  0.00  0.00    +0.312 C 
BRANCH  12  13
ATOM     13  OD1 ASP A   1      35.749 -25.292 -13.231  0.00  0.00    -0.480 OA
ATOM     14  HD1 ASP A   1      35.142 -25.986 -13.399  0.00  0.00    +0.295 HD
ENDBRANCH  12  13
ENDBRANCH  10  12
ENDBRANCH   1  10
TORSDOF 6
ENDMDL
MODEL 3
REMARK VINA RESULT:      -5.2      1.658      3.708
REMARK  Name = 5960
REMARK  6 active torsions:
REMARK  status: ('A' for Active; 'I' for Inactive)
REMARK    1  A    between atoms: CA_1  and  N_2
REMARK    2  A    between atoms: CA_1  and  C_7
REMARK    3  A    between atoms: CA_1  and  CB_10
REMARK    4  A    between atoms: C_7  and  O_8
REMARK    5  A    between atoms: CB_10  and  CG_12
REMARK    6  A    between atoms: CG_12  and  OD1_13
REMARK                            x       y       z     vdW  Elec       q    Type
REMARK                         _______ _______ _______ _____ _____    ______ ____
ROOT
ATOM      1  CA  ASP A   1      38.162 -25.691 -13.601  0.00  0.00    +0.047 C 
ENDROOT
BRANCH   1   2
ATOM      2  N   ASP A   1      38.066 -26.990 -14.267  0.00  0.00    +0.389 N 
ATOM      3  H1  ASP A   1      37.554 -26.888 -15.143  0.00  0.00    -0.088 HD
ATOM      4  H2  ASP A   1      37.574 -27.647 -13.661  0.00  0.00    -0.088 HD
ATOM      5  H3  ASP A   1      39.003 -27.344 -14.460  0.00  0.00    -0.088 HD
ENDBRANCH   1   2
BRANCH   1   7
ATOM      6  OXT ASP A   1      36.320 -24.092 -13.662  0.00  0.00    -0.253 OA
ATOM      7  C   ASP A   1      37.127 -24.793 -14.258  0.00  0.00    +0.293 C 
BRANCH   7   8
ATOM      8  O   ASP A   1      37.205 -24.830 -15.616  0.00  0.00    -0.482 OA
ATOM      9  H   ASP A   1      37.186 -24.033 -16.108  0.00  0.00    +0.295 HD
ENDBRANCH   7   8
ENDBRANCH   1   7
BRANCH   1  10
ATOM     10  CB  ASP A   1      39.588 -25.142 -13.741  0.00  0.00    +0.098 C 
BRANCH  10  12
ATOM     11  OD2 ASP A   1      41.261 -26.860 -14.202  0.00  0.00    -0.250 OA
ATOM     12  CG  ASP A   1      40.465 -26.023 -14.599  0.00  0.00    +0.312 C 
BRANCH  12  13
ATOM     13  OD1 ASP A   1      40.249 -25.754 -15.913  0.00  0.00    -0.480 OA
ATOM     14  HD1 ASP A   1      39.971 -24.898 -16.176  0.00  0.00    +0.295 HD
ENDBRANCH  12  13
ENDBRANCH  10  12
ENDBRANCH   1  10
TORSDOF 6
ENDMDL
MODEL 4
REMARK VINA RESULT:      -5.0      2.492      3.696
REMARK  Name = 5960
REMARK  6 active torsions:
REMARK  status: ('A' for Active; 'I' for Inactive)
REMARK    1  A    between atoms: CA_1  and  N_2
REMARK    2  A    between atoms: CA_1  and  C_7
REMARK    3  A    between atoms: CA_1  and  CB_10
REMARK    4  A    between atoms: C_7  and  O_8
REMARK    5  A    between atoms: CB_10  and  CG_12
REMARK    6  A    between atoms: CG_12  and  OD1_13
REMARK                            x       y       z     vdW  Elec       q    Type
REMARK                         _______ _______ _______ _____ _____    ______ ____
ROOT
ATOM      1  CA  ASP A   1      37.301 -26.410 -13.747  0.00  0.00    +0.047 C 
ENDROOT
BRANCH   1   2
ATOM      2  N   ASP A   1      38.749 -26.211 -13.665  0.00  0.00    +0.389 N 
ATOM      3  H1  ASP A   1      39.200 -27.089 -13.415  0.00  0.00    -0.088 HD
ATOM      4  H2  ASP A   1      38.955 -25.508 -12.954  0.00  0.00    -0.088 HD
ATOM      5  H3  ASP A   1      39.100 -25.892 -14.568  0.00  0.00    -0.088 HD
ENDBRANCH   1   2
BRANCH   1   7
ATOM      6  OXT ASP A   1      36.747 -27.233 -15.977  0.00  0.00    -0.253 OA
ATOM      7  C   ASP A   1      36.934 -26.291 -15.218  0.00  0.00    +0.293 C 
BRANCH   7   8
ATOM      8  O   ASP A   1      36.806 -24.995 -15.610  0.00  0.00    -0.482 OA
ATOM      9  H   ASP A   1      37.034 -24.303 -15.021  0.00  0.00    +0.295 HD
ENDBRANCH   7   8
ENDBRANCH   1   7
BRANCH   1  10
ATOM     10  CB  ASP A   1      36.585 -25.368 -12.878  0.00  0.00    +0.098 C 
BRANCH  10  12
ATOM     11  OD2 ASP A   1      38.002 -24.325 -11.184  0.00  0.00    -0.250 OA
ATOM     12  CG  ASP A   1      37.533 -24.337 -12.312  0.00  0.00    +0.312 C 
BRANCH  12  13
ATOM     13  OD1 ASP A   1      37.805 -23.392 -13.250  0.00  0.00    -0.480 OA
ATOM     14  HD1 ASP A   1      38.438 -22.724 -13.072  0.00  0.00    +0.295 HD
ENDBRANCH  12  13
ENDBRANCH  10  12
ENDBRANCH   1  10
TORSDOF 6
ENDMDL
MODEL 5
REMARK VINA RESULT:      -5.0      2.098      3.697
REMARK  Name = 5960
REMARK  6 active torsions:
REMARK  status: ('A' for Active; 'I' for Inactive)
REMARK    1  A    between atoms: CA_1  and  N_2
REMARK    2  A    between atoms: CA_1  and  C_7
REMARK    3  A    between atoms: CA_1  and  CB_10
REMARK    4  A    between atoms: C_7  and  O_8
REMARK    5  A    between atoms: CB_10  and  CG_12
REMARK    6  A    between atoms: CG_12  and  OD1_13
REMARK                            x       y       z     vdW  Elec       q    Type
REMARK                         _______ _______ _______ _____ _____    ______ ____
ROOT
ATOM      1  CA  ASP A   1      37.865 -25.229 -13.938  0.00  0.00    +0.047 C 
ENDROOT
BRANCH   1   2
ATOM      2  N   ASP A   1      37.975 -24.029 -14.768  0.00  0.00    +0.389 N 
ATOM      3  H1  ASP A   1      37.331 -23.317 -14.426  0.00  0.00    -0.088 HD
ATOM      4  H2  ASP A   1      37.742 -24.262 -15.734  0.00  0.00    -0.088 HD
ATOM      5  H3  ASP A   1      38.930 -23.673 -14.727  0.00  0.00    -0.088 HD
ENDBRANCH   1   2
BRANCH   1   7
ATOM      6  OXT ASP A   1      37.187 -25.213 -11.594  0.00  0.00    -0.253 OA
ATOM      7  C   ASP A   1      37.879 -24.755 -12.494  0.00  0.00    +0.293 C 
BRANCH   7   8
ATOM      8  O   ASP A   1      38.782 -23.758 -12.291  0.00  0.00    -0.482 OA
ATOM      9  H   ASP A   1      39.522 -23.902 -11.735  0.00  0.00    +0.295 HD
ENDBRANCH   7   8
ENDBRANCH   1   7
BRANCH   1  10
ATOM     10  CB  ASP A   1      39.023 -26.185 -14.252  0.00  0.00    +0.098 C 
BRANCH  10  12
ATOM     11  OD2 ASP A   1      40.930 -24.659 -14.329  0.00  0.00    -0.250 OA
ATOM     12  CG  ASP A   1      40.204 -25.476 -14.875  0.00  0.00    +0.312 C 
BRANCH  12  13
ATOM     13  OD1 ASP A   1      40.359 -25.877 -16.164  0.00  0.00    -0.480 OA
ATOM     14  HD1 ASP A   1      41.216 -25.925 -16.540  0.00  0.00    +0.295 HD
ENDBRANCH  12  13
ENDBRANCH  10  12
ENDBRANCH   1  10
TORSDOF 6
ENDMDL
MODEL 6
REMARK VINA RESULT:      -4.9      3.002      3.531
REMARK  Name = 5960
REMARK  6 active torsions:
REMARK  status: ('A' for Active; 'I' for Inactive)
REMARK    1  A    between atoms: CA_1  and  N_2
REMARK    2  A    between atoms: CA_1  and  C_7
REMARK    3  A    between atoms: CA_1  and  CB_10
REMARK    4  A    between atoms: C_7  and  O_8
REMARK    5  A    between atoms: CB_10  and  CG_12
REMARK    6  A    between atoms: CG_12  and  OD1_13
REMARK                            x       y       z     vdW  Elec       q    Type
REMARK                         _______ _______ _______ _____ _____    ______ ____
ROOT
ATOM      1  CA  ASP A   1      37.619 -25.040 -12.248  0.00  0.00    +0.047 C 
ENDROOT
BRANCH   1   2
ATOM      2  N   ASP A   1      36.353 -25.477 -12.836  0.00  0.00    +0.389 N 
ATOM      3  H1  ASP A   1      36.497 -26.348 -13.347  0.00  0.00    -0.088 HD
ATOM      4  H2  ASP A   1      36.010 -24.760 -13.477  0.00  0.00    -0.088 HD
ATOM      5  H3  ASP A   1      35.667 -25.626 -12.096  0.00  0.00    -0.088 HD
ENDBRANCH   1   2
BRANCH   1   7
ATOM      6  OXT ASP A   1      37.440 -22.914 -11.063  0.00  0.00    -0.253 OA
ATOM      7  C   ASP A   1      37.533 -23.527 -12.118  0.00  0.00    +0.293 C 
BRANCH   7   8
ATOM      8  O   ASP A   1      37.597 -22.905 -13.326  0.00  0.00    -0.482 OA
ATOM      9  H   ASP A   1      37.237 -22.046 -13.430  0.00  0.00    +0.295 HD
ENDBRANCH   7   8
ENDBRANCH   1   7
BRANCH   1  10
ATOM     10  CB  ASP A   1      38.786 -25.485 -13.139  0.00  0.00    +0.098 C 
BRANCH  10  12
ATOM     11  OD2 ASP A   1      38.191 -27.253 -14.717  0.00  0.00    -0.250 OA
ATOM     12  CG  ASP A   1      38.320 -26.067 -14.454  0.00  0.00    +0.312 C 
BRANCH  12  13
ATOM     13  OD1 ASP A   1      38.055 -25.067 -15.335  0.00  0.00    -0.480 OA
ATOM     14  HD1 ASP A   1      37.822 -25.273 -16.220  0.00  0.00    +0.295 HD
ENDBRANCH  12  13
ENDBRANCH  10  12
ENDBRANCH   1  10
TORSDOF 6
ENDMDL
MODEL 7
REMARK VINA RESULT:      -4.9      3.524      4.250
REMARK  Name = 5960
REMARK  6 active torsions:
REMARK  status: ('A' for Active; 'I' for Inactive)
REMARK    1  A    between atoms: CA_1  and  N_2
REMARK    2  A    between atoms: CA_1  and  C_7
REMARK    3  A    between atoms: CA_1  and  CB_10
REMARK    4  A    between atoms: C_7  and  O_8
REMARK    5  A    between atoms: CB_10  and  CG_12
REMARK    6  A    between atoms: CG_12  and  OD1_13
REMARK                            x       y       z     vdW  Elec       q    Type
REMARK                         _______ _______ _______ _____ _____    ______ ____
ROOT
ATOM      1  CA  ASP A   1      36.014 -24.883 -13.638  0.00  0.00    +0.047 C 
ENDROOT
BRANCH   1   2
ATOM      2  N   ASP A   1      36.638 -26.075 -13.064  0.00  0.00    +0.389 N 
ATOM      3  H1  ASP A   1      36.921 -25.883 -12.103  0.00  0.00    -0.088 HD
ATOM      4  H2  ASP A   1      37.459 -26.328 -13.615  0.00  0.00    -0.088 HD
ATOM      5  H3  ASP A   1      35.972 -26.847 -13.074  0.00  0.00    -0.088 HD
ENDBRANCH   1   2
BRANCH   1   7
ATOM      6  OXT ASP A   1      38.068 -23.585 -13.862  0.00  0.00    -0.253 OA
ATOM      7  C   ASP A   1      37.111 -24.140 -14.384  0.00  0.00    +0.293 C 
BRANCH   7   8
ATOM      8  O   ASP A   1      36.927 -24.176 -15.731  0.00  0.00    -0.482 OA
ATOM      9  H   ASP A   1      36.803 -23.379 -16.208  0.00  0.00    +0.295 HD
ENDBRANCH   7   8
ENDBRANCH   1   7
BRANCH   1  10
ATOM     10  CB  ASP A   1      35.388 -24.037 -12.522  0.00  0.00    +0.098 C 
BRANCH  10  12
ATOM     11  OD2 ASP A   1      35.249 -25.109 -10.331  0.00  0.00    -0.250 OA
ATOM     12  CG  ASP A   1      35.869 -24.446 -11.148  0.00  0.00    +0.312 C 
BRANCH  12  13
ATOM     13  OD1 ASP A   1      37.120 -23.962 -10.931  0.00  0.00    -0.480 OA
ATOM     14  HD1 ASP A   1      37.243 -23.053 -10.738  0.00  0.00    +0.295 HD
ENDBRANCH  12  13
ENDBRANCH  10  12
ENDBRANCH   1  10
TORSDOF 6
ENDMDL
MODEL 8
REMARK VINA RESULT:      -4.9      2.497      3.487
REMARK  Name = 5960
REMARK  6 active torsions:
REMARK  status: ('A' for Active; 'I' for Inactive)
REMARK    1  A    between atoms: CA_1  and  N_2
REMARK    2  A    between atoms: CA_1  and  C_7
REMARK    3  A    between atoms: CA_1  and  CB_10
REMARK    4  A    between atoms: C_7  and  O_8
REMARK    5  A    between atoms: CB_10  and  CG_12
REMARK    6  A    between atoms: CG_12  and  OD1_13
REMARK                            x       y       z     vdW  Elec       q    Type
REMARK                         _______ _______ _______ _____ _____    ______ ____
ROOT
ATOM      1  CA  ASP A   1      36.433 -25.220 -14.800  0.00  0.00    +0.047 C 
ENDROOT
BRANCH   1   2
ATOM      2  N   ASP A   1      35.009 -25.542 -14.709  0.00  0.00    +0.389 N 
ATOM      3  H1  ASP A   1      34.728 -26.083 -15.526  0.00  0.00    -0.088 HD
ATOM      4  H2  ASP A   1      34.467 -24.678 -14.671  0.00  0.00    -0.088 HD
ATOM      5  H3  ASP A   1      34.837 -26.087 -13.864  0.00  0.00    -0.088 HD
ENDBRANCH   1   2
BRANCH   1   7
ATOM      6  OXT ASP A   1      37.964 -27.040 -14.250  0.00  0.00    -0.253 OA
ATOM      7  C   ASP A   1      37.159 -26.538 -15.023  0.00  0.00    +0.293 C 
BRANCH   7   8
ATOM      8  O   ASP A   1      36.794 -27.131 -16.192  0.00  0.00    -0.482 OA
ATOM      9  H   ASP A   1      35.888 -27.292 -16.373  0.00  0.00    +0.295 HD
ENDBRANCH   7   8
ENDBRANCH   1   7
BRANCH   1  10
ATOM     10  CB  ASP A   1      36.888 -24.511 -13.518  0.00  0.00    +0.098 C 
BRANCH  10  12
ATOM     11  OD2 ASP A   1      35.070 -24.202 -11.916  0.00  0.00    -0.250 OA
ATOM     12  CG  ASP A   1      36.018 -24.852 -12.330  0.00  0.00    +0.312 C 
BRANCH  12  13
ATOM     13  OD1 ASP A   1      36.441 -26.011 -11.762  0.00  0.00    -0.480 OA
ATOM     14  HD1 ASP A   1      37.332 -26.097 -11.483  0.00  0.00    +0.295 HD
ENDBRANCH  12  13
ENDBRANCH  10  12
ENDBRANCH   1  10
TORSDOF 6
ENDMDL
MODEL 9
REMARK VINA RESULT:      -4.8      2.930      3.879
REMARK  Name = 5960
REMARK  6 active torsions:
REMARK  status: ('A' for Active; 'I' for Inactive)
REMARK    1  A    between atoms: CA_1  and  N_2
REMARK    2  A    between atoms: CA_1  and  C_7
REMARK    3  A    between atoms: CA_1  and  CB_10
REMARK    4  A    between atoms: C_7  and  O_8
REMARK    5  A    between atoms: CB_10  and  CG_12
REMARK    6  A    between atoms: CG_12  and  OD1_13
REMARK                            x       y       z     vdW  Elec       q    Type
REMARK                         _______ _______ _______ _____ _____    ______ ____
ROOT
ATOM      1  CA  ASP A   1      38.056 -24.827 -13.943  0.00  0.00    +0.047 C 
ENDROOT
BRANCH   1   2
ATOM      2  N   ASP A   1      38.063 -24.437 -15.353  0.00  0.00    +0.389 N 
ATOM      3  H1  ASP A   1      37.246 -24.830 -15.820  0.00  0.00    -0.088 HD
ATOM      4  H2  ASP A   1      38.911 -24.789 -15.799  0.00  0.00    -0.088 HD
ATOM      5  H3  ASP A   1      38.039 -23.420 -15.425  0.00  0.00    -0.088 HD
ENDBRANCH   1   2
BRANCH   1   7
ATOM      6  OXT ASP A   1      38.140 -27.158 -14.661  0.00  0.00    -0.253 OA
ATOM      7  C   ASP A   1      37.695 -26.304 -13.907  0.00  0.00    +0.293 C 
BRANCH   7   8
ATOM      8  O   ASP A   1      36.819 -26.592 -12.906  0.00  0.00    -0.482 OA
ATOM      9  H   ASP A   1      37.113 -27.053 -12.145  0.00  0.00    +0.295 HD
ENDBRANCH   7   8
ENDBRANCH   1   7
BRANCH   1  10
ATOM     10  CB  ASP A   1      37.054 -23.960 -13.170  0.00  0.00    +0.098 C 
BRANCH  10  12
ATOM     11  OD2 ASP A   1      38.348 -22.582 -11.624  0.00  0.00    -0.250 OA
ATOM     12  CG  ASP A   1      37.589 -23.516 -11.828  0.00  0.00    +0.312 C 
BRANCH  12  13
ATOM     13  OD1 ASP A   1      37.101 -24.319 -10.846  0.00  0.00    -0.480 OA
ATOM     14  HD1 ASP A   1      36.517 -23.968 -10.202  0.00  0.00    +0.295 HD
ENDBRANCH  12  13
ENDBRANCH  10  12
ENDBRANCH   1  10
TORSDOF 6
ENDMDL
