MODEL 1
REMARK VINA RESULT:      -9.4      0.000      0.000
REMARK  Name = 5401
REMARK  3 active torsions:
REMARK  status: ('A' for Active; 'I' for Inactive)
REMARK    1  A    between atoms: C_11  and  C_23
REMARK    2  A    between atoms: C_18  and  O_27
REMARK    3  A    between atoms: C_19  and  O_29
REMARK                            x       y       z     vdW  Elec       q    Type
REMARK                         _______ _______ _______ _____ _____    ______ ____
ROOT
ATOM      1  O   UNL     1      31.555  -3.306 -22.967  0.00  0.00    -0.272 OA
ATOM      2  N   UNL     1      31.606  -5.589 -23.397  0.00  0.00    -0.274 N 
ATOM      3  N   UNL     1      31.874  -8.333 -22.518  0.00  0.00    -0.231 N 
ATOM      4  N   UNL     1      32.352 -10.598 -23.004  0.00  0.00    -0.332 NA
ATOM      5  N   UNL     1      31.662  -9.932 -20.793  0.00  0.00    -0.317 NA
ATOM      6  N   UNL     1      31.449 -11.522 -19.072  0.00  0.00    -0.335 N 
ATOM      7  C   UNL     1      31.405  -6.713 -24.314  0.00  0.00    +0.116 C 
ATOM      8  C   UNL     1      32.055  -5.923 -22.049  0.00  0.00    +0.116 C 
ATOM      9  C   UNL     1      32.185  -7.961 -23.901  0.00  0.00    +0.125 C 
ATOM     10  C   UNL     1      31.505  -7.268 -21.581  0.00  0.00    +0.125 C 
ATOM     11  C   UNL     1      31.386  -4.253 -23.738  0.00  0.00    +0.253 C 
ATOM     12  C   UNL     1      31.964  -9.656 -22.092  0.00  0.00    +0.203 C 
ATOM     13  C   UNL     1      32.440 -11.878 -22.599  0.00  0.00    +0.138 C 
ATOM     14  C   UNL     1      32.146 -12.250 -21.277  0.00  0.00    +0.146 C 
ATOM     15  C   UNL     1      31.760 -11.223 -20.421  0.00  0.00    +0.178 C 
ATOM     16  C   UNL     1      32.830 -12.879 -23.485  0.00  0.00    +0.069 C 
ATOM     17  C   UNL     1      32.242 -13.591 -20.865  0.00  0.00    +0.029 C 
ATOM     18  C   UNL     1      32.928 -14.215 -23.084  0.00  0.00    +0.174 C 
ATOM     19  C   UNL     1      32.633 -14.571 -21.772  0.00  0.00    +0.169 C 
ATOM     20  H   UNL     1      31.175 -10.802 -18.458  0.00  0.00    +0.144 HD
ATOM     21  H   UNL     1      31.505 -12.450 -18.747  0.00  0.00    +0.144 HD
ENDROOT
BRANCH  11  23
ATOM     22  O   UNL     1      30.092  -2.833 -25.081  0.00  0.00    -0.347 OA
ATOM     23  C   UNL     1      30.924  -3.995 -25.138  0.00  0.00    +0.191 C 
ATOM     24  C   UNL     1      32.071  -3.688 -26.081  0.00  0.00    +0.042 C 
ATOM     25  C   UNL     1      32.166  -2.183 -26.002  0.00  0.00    +0.035 C 
ATOM     26  C   UNL     1      30.717  -1.786 -25.835  0.00  0.00    +0.143 C 
ENDBRANCH  11  23
BRANCH  18  27
ATOM     27  O   UNL     1      33.313 -15.158 -23.988  0.00  0.00    -0.468 OA
ATOM     28  C   UNL     1      33.197 -14.817 -25.368  0.00  0.00    +0.253 C 
ENDBRANCH  18  27
BRANCH  19  29
ATOM     29  O   UNL     1      32.725 -15.868 -21.366  0.00  0.00    -0.469 OA
ATOM     30  C   UNL     1      34.001 -16.318 -20.917  0.00  0.00    +0.253 C 
ENDBRANCH  19  29
TORSDOF 3
ENDMDL
MODEL 2
REMARK VINA RESULT:      -8.8      1.627      9.498
REMARK  Name = 5401
REMARK  3 active torsions:
REMARK  status: ('A' for Active; 'I' for Inactive)
REMARK    1  A    between atoms: C_11  and  C_23
REMARK    2  A    between atoms: C_18  and  O_27
REMARK    3  A    between atoms: C_19  and  O_29
REMARK                            x       y       z     vdW  Elec       q    Type
REMARK                         _______ _______ _______ _____ _____    ______ ____
ROOT
ATOM      1  O   UNL     1      32.338 -14.484 -21.603  0.00  0.00    -0.272 OA
ATOM      2  N   UNL     1      32.765 -12.429 -22.600  0.00  0.00    -0.274 N 
ATOM      3  N   UNL     1      32.239  -9.600 -22.914  0.00  0.00    -0.231 N 
ATOM      4  N   UNL     1      32.371  -7.628 -24.212  0.00  0.00    -0.332 NA
ATOM      5  N   UNL     1      31.451  -7.577 -21.986  0.00  0.00    -0.317 NA
ATOM      6  N   UNL     1      30.665  -5.562 -21.057  0.00  0.00    -0.335 N 
ATOM      7  C   UNL     1      33.595 -11.584 -23.461  0.00  0.00    +0.116 C 
ATOM      8  C   UNL     1      31.597 -11.794 -21.997  0.00  0.00    +0.116 C 
ATOM      9  C   UNL     1      32.840 -10.371 -24.005  0.00  0.00    +0.125 C 
ATOM     10  C   UNL     1      31.841 -10.316 -21.698  0.00  0.00    +0.125 C 
ATOM     11  C   UNL     1      33.035 -13.771 -22.328  0.00  0.00    +0.253 C 
ATOM     12  C   UNL     1      32.014  -8.232 -23.038  0.00  0.00    +0.203 C 
ATOM     13  C   UNL     1      32.157  -6.306 -24.339  0.00  0.00    +0.138 C 
ATOM     14  C   UNL     1      31.581  -5.554 -23.302  0.00  0.00    +0.146 C 
ATOM     15  C   UNL     1      31.250  -6.255 -22.146  0.00  0.00    +0.178 C 
ATOM     16  C   UNL     1      32.501  -5.639 -25.512  0.00  0.00    +0.069 C 
ATOM     17  C   UNL     1      31.362  -4.172 -23.446  0.00  0.00    +0.029 C 
ATOM     18  C   UNL     1      32.286  -4.266 -25.664  0.00  0.00    +0.174 C 
ATOM     19  C   UNL     1      31.716  -3.531 -24.629  0.00  0.00    +0.169 C 
ATOM     20  H   UNL     1      30.427  -6.049 -20.234  0.00  0.00    +0.144 HD
ATOM     21  H   UNL     1      30.497  -4.595 -21.122  0.00  0.00    +0.144 HD
ENDROOT
BRANCH  11  23
ATOM     22  O   UNL     1      34.957 -15.063 -21.963  0.00  0.00    -0.347 OA
ATOM     23  C   UNL     1      34.253 -14.346 -22.981  0.00  0.00    +0.191 C 
ATOM     24  C   UNL     1      33.911 -15.334 -24.079  0.00  0.00    +0.042 C 
ATOM     25  C   UNL     1      33.879 -16.650 -23.338  0.00  0.00    +0.035 C 
ATOM     26  C   UNL     1      34.967 -16.454 -22.306  0.00  0.00    +0.143 C 
ENDBRANCH  11  23
BRANCH  18  27
ATOM     27  O   UNL     1      32.641  -3.659 -26.831  0.00  0.00    -0.468 OA
ATOM     28  C   UNL     1      33.219  -4.484 -27.840  0.00  0.00    +0.253 C 
ENDBRANCH  18  27
BRANCH  19  29
ATOM     29  O   UNL     1      31.501  -2.194 -24.762  0.00  0.00    -0.469 OA
ATOM     30  C   UNL     1      30.204  -1.786 -25.195  0.00  0.00    +0.253 C 
ENDBRANCH  19  29
TORSDOF 3
ENDMDL
MODEL 3
REMARK VINA RESULT:      -8.7      2.284      9.706
REMARK  Name = 5401
REMARK  3 active torsions:
REMARK  status: ('A' for Active; 'I' for Inactive)
REMARK    1  A    between atoms: C_11  and  C_23
REMARK    2  A    between atoms: C_18  and  O_27
REMARK    3  A    between atoms: C_19  and  O_29
REMARK                            x       y       z     vdW  Elec       q    Type
REMARK                         _______ _______ _______ _____ _____    ______ ____
ROOT
ATOM      1  O   UNL     1      33.549 -17.642 -21.654  0.00  0.00    -0.272 OA
ATOM      2  N   UNL     1      33.601 -15.434 -22.377  0.00  0.00    -0.274 N 
ATOM      3  N   UNL     1      32.850 -12.652 -22.099  0.00  0.00    -0.231 N 
ATOM      4  N   UNL     1      32.547 -10.511 -23.057  0.00  0.00    -0.332 NA
ATOM      5  N   UNL     1      32.196 -10.866 -20.699  0.00  0.00    -0.317 NA
ATOM      6  N   UNL     1      31.545  -9.089 -19.301  0.00  0.00    -0.335 N 
ATOM      7  C   UNL     1      34.145 -14.399 -23.258  0.00  0.00    +0.116 C 
ATOM      8  C   UNL     1      32.580 -15.005 -21.425  0.00  0.00    +0.116 C 
ATOM      9  C   UNL     1      33.211 -13.198 -23.410  0.00  0.00    +0.125 C 
ATOM     10  C   UNL     1      32.803 -13.569 -20.957  0.00  0.00    +0.125 C 
ATOM     11  C   UNL     1      34.006 -16.769 -22.395  0.00  0.00    +0.253 C 
ATOM     12  C   UNL     1      32.523 -11.308 -21.945  0.00  0.00    +0.203 C 
ATOM     13  C   UNL     1      32.232  -9.211 -22.915  0.00  0.00    +0.138 C 
ATOM     14  C   UNL     1      31.884  -8.673 -21.665  0.00  0.00    +0.146 C 
ATOM     15  C   UNL     1      31.886  -9.560 -20.593  0.00  0.00    +0.178 C 
ATOM     16  C   UNL     1      32.240  -8.354 -24.012  0.00  0.00    +0.069 C 
ATOM     17  C   UNL     1      31.556  -7.312 -21.530  0.00  0.00    +0.029 C 
ATOM     18  C   UNL     1      31.916  -6.999 -23.886  0.00  0.00    +0.174 C 
ATOM     19  C   UNL     1      31.574  -6.478 -22.643  0.00  0.00    +0.169 C 
ATOM     20  H   UNL     1      31.543  -9.709 -18.535  0.00  0.00    +0.144 HD
ATOM     21  H   UNL     1      31.310  -8.143 -19.168  0.00  0.00    +0.144 HD
ENDROOT
BRANCH  11  23
ATOM     22  O   UNL     1      35.552 -18.416 -23.023  0.00  0.00    -0.347 OA
ATOM     23  C   UNL     1      35.060 -17.126 -23.398  0.00  0.00    +0.191 C 
ATOM     24  C   UNL     1      34.506 -17.242 -24.805  0.00  0.00    +0.042 C 
ATOM     25  C   UNL     1      34.145 -18.706 -24.896  0.00  0.00    +0.035 C 
ATOM     26  C   UNL     1      35.231 -19.349 -24.063  0.00  0.00    +0.143 C 
ENDBRANCH  11  23
BRANCH  18  27
ATOM     27  O   UNL     1      31.940  -6.201 -24.990  0.00  0.00    -0.468 OA
ATOM     28  C   UNL     1      33.201  -5.654 -25.366  0.00  0.00    +0.253 C 
ENDBRANCH  18  27
BRANCH  19  29
ATOM     29  O   UNL     1      31.255  -5.162 -22.505  0.00  0.00    -0.469 OA
ATOM     30  C   UNL     1      30.223  -4.839 -21.575  0.00  0.00    +0.253 C 
ENDBRANCH  19  29
TORSDOF 3
ENDMDL
MODEL 4
REMARK VINA RESULT:      -8.6      1.978      2.871
REMARK  Name = 5401
REMARK  3 active torsions:
REMARK  status: ('A' for Active; 'I' for Inactive)
REMARK    1  A    between atoms: C_11  and  C_23
REMARK    2  A    between atoms: C_18  and  O_27
REMARK    3  A    between atoms: C_19  and  O_29
REMARK                            x       y       z     vdW  Elec       q    Type
REMARK                         _______ _______ _______ _____ _____    ______ ____
ROOT
ATOM      1  O   UNL     1      31.381  -6.085 -22.041  0.00  0.00    -0.272 OA
ATOM      2  N   UNL     1      31.903  -8.224 -22.786  0.00  0.00    -0.274 N 
ATOM      3  N   UNL     1      32.510 -11.009 -22.286  0.00  0.00    -0.231 N 
ATOM      4  N   UNL     1      33.451 -13.057 -23.003  0.00  0.00    -0.332 NA
ATOM      5  N   UNL     1      32.313 -12.900 -20.885  0.00  0.00    -0.317 NA
ATOM      6  N   UNL     1      32.114 -14.782 -19.486  0.00  0.00    -0.335 N 
ATOM      7  C   UNL     1      32.052  -9.186 -23.879  0.00  0.00    +0.116 C 
ATOM      8  C   UNL     1      32.184  -8.719 -21.442  0.00  0.00    +0.116 C 
ATOM      9  C   UNL     1      32.965 -10.358 -23.517  0.00  0.00    +0.125 C 
ATOM     10  C   UNL     1      31.814 -10.193 -21.288  0.00  0.00    +0.125 C 
ATOM     11  C   UNL     1      31.507  -6.897 -22.961  0.00  0.00    +0.253 C 
ATOM     12  C   UNL     1      32.763 -12.358 -22.050  0.00  0.00    +0.203 C 
ATOM     13  C   UNL     1      33.699 -14.360 -22.781  0.00  0.00    +0.138 C 
ATOM     14  C   UNL     1      33.270 -14.999 -21.606  0.00  0.00    +0.146 C 
ATOM     15  C   UNL     1      32.578 -14.207 -20.695  0.00  0.00    +0.178 C 
ATOM     16  C   UNL     1      34.395 -15.121 -23.717  0.00  0.00    +0.069 C 
ATOM     17  C   UNL     1      33.535 -16.362 -21.386  0.00  0.00    +0.029 C 
ATOM     18  C   UNL     1      34.664 -16.477 -23.506  0.00  0.00    +0.174 C 
ATOM     19  C   UNL     1      34.233 -17.098 -22.338  0.00  0.00    +0.169 C 
ATOM     20  H   UNL     1      31.624 -14.230 -18.834  0.00  0.00    +0.144 HD
ATOM     21  H   UNL     1      32.282 -15.733 -19.297  0.00  0.00    +0.144 HD
ENDROOT
BRANCH  11  23
ATOM     22  O   UNL     1      30.303  -5.385 -24.289  0.00  0.00    -0.347 OA
ATOM     23  C   UNL     1      31.234  -6.469 -24.369  0.00  0.00    +0.191 C 
ATOM     24  C   UNL     1      32.476  -5.950 -25.069  0.00  0.00    +0.042 C 
ATOM     25  C   UNL     1      32.424  -4.470 -24.774  0.00  0.00    +0.035 C 
ATOM     26  C   UNL     1      30.936  -4.200 -24.786  0.00  0.00    +0.143 C 
ENDBRANCH  11  23
BRANCH  18  27
ATOM     27  O   UNL     1      35.348 -17.179 -24.452  0.00  0.00    -0.468 OA
ATOM     28  C   UNL     1      34.575 -17.899 -25.409  0.00  0.00    +0.253 C 
ENDBRANCH  18  27
BRANCH  19  29
ATOM     29  O   UNL     1      34.487 -18.417 -22.118  0.00  0.00    -0.469 OA
ATOM     30  C   UNL     1      35.602 -18.733 -21.287  0.00  0.00    +0.253 C 
ENDBRANCH  19  29
TORSDOF 3
ENDMDL
MODEL 5
REMARK VINA RESULT:      -8.5      9.320     13.574
REMARK  Name = 5401
REMARK  3 active torsions:
REMARK  status: ('A' for Active; 'I' for Inactive)
REMARK    1  A    between atoms: C_11  and  C_23
REMARK    2  A    between atoms: C_18  and  O_27
REMARK    3  A    between atoms: C_19  and  O_29
REMARK                            x       y       z     vdW  Elec       q    Type
REMARK                         _______ _______ _______ _____ _____    ______ ____
ROOT
ATOM      1  O   UNL     1      36.200 -18.909 -23.460  0.00  0.00    -0.272 OA
ATOM      2  N   UNL     1      34.725 -19.644 -21.822  0.00  0.00    -0.274 N 
ATOM      3  N   UNL     1      34.106 -21.257 -19.500  0.00  0.00    -0.231 N 
ATOM      4  N   UNL     1      32.510 -22.319 -18.115  0.00  0.00    -0.332 NA
ATOM      5  N   UNL     1      34.854 -22.373 -17.558  0.00  0.00    -0.317 NA
ATOM      6  N   UNL     1      35.604 -23.483 -15.624  0.00  0.00    -0.335 N 
ATOM      7  C   UNL     1      33.438 -19.535 -21.131  0.00  0.00    +0.116 C 
ATOM      8  C   UNL     1      35.632 -20.683 -21.345  0.00  0.00    +0.116 C 
ATOM      9  C   UNL     1      33.043 -20.824 -20.410  0.00  0.00    +0.125 C 
ATOM     10  C   UNL     1      35.491 -20.919 -19.844  0.00  0.00    +0.125 C 
ATOM     11  C   UNL     1      35.118 -18.819 -22.877  0.00  0.00    +0.253 C 
ATOM     12  C   UNL     1      33.819 -22.003 -18.360  0.00  0.00    +0.203 C 
ATOM     13  C   UNL     1      32.226 -23.039 -17.015  0.00  0.00    +0.138 C 
ATOM     14  C   UNL     1      33.234 -23.462 -16.134  0.00  0.00    +0.146 C 
ATOM     15  C   UNL     1      34.534 -23.092 -16.466  0.00  0.00    +0.178 C 
ATOM     16  C   UNL     1      30.912 -23.390 -16.716  0.00  0.00    +0.069 C 
ATOM     17  C   UNL     1      32.923 -24.214 -14.987  0.00  0.00    +0.029 C 
ATOM     18  C   UNL     1      30.594 -24.137 -15.577  0.00  0.00    +0.174 C 
ATOM     19  C   UNL     1      31.601 -24.550 -14.712  0.00  0.00    +0.169 C 
ATOM     20  H   UNL     1      36.528 -23.228 -15.850  0.00  0.00    +0.144 HD
ATOM     21  H   UNL     1      35.425 -24.011 -14.812  0.00  0.00    +0.144 HD
ENDROOT
BRANCH  11  23
ATOM     22  O   UNL     1      34.522 -16.562 -22.656  0.00  0.00    -0.347 OA
ATOM     23  C   UNL     1      34.131 -17.776 -23.304  0.00  0.00    +0.191 C 
ATOM     24  C   UNL     1      34.163 -17.524 -24.799  0.00  0.00    +0.042 C 
ATOM     25  C   UNL     1      35.166 -16.401 -24.921  0.00  0.00    +0.035 C 
ATOM     26  C   UNL     1      34.908 -15.612 -23.657  0.00  0.00    +0.143 C 
ENDBRANCH  11  23
BRANCH  18  27
ATOM     27  O   UNL     1      29.293 -24.455 -15.328  0.00  0.00    -0.468 OA
ATOM     28  C   UNL     1      28.303 -23.531 -15.777  0.00  0.00    +0.253 C 
ENDBRANCH  18  27
BRANCH  19  29
ATOM     29  O   UNL     1      31.308 -25.279 -13.600  0.00  0.00    -0.469 OA
ATOM     30  C   UNL     1      30.522 -24.641 -12.595  0.00  0.00    +0.253 C 
ENDBRANCH  19  29
TORSDOF 3
ENDMDL
MODEL 6
REMARK VINA RESULT:      -8.4      9.749     14.290
REMARK  Name = 5401
REMARK  3 active torsions:
REMARK  status: ('A' for Active; 'I' for Inactive)
REMARK    1  A    between atoms: C_11  and  C_23
REMARK    2  A    between atoms: C_18  and  O_27
REMARK    3  A    between atoms: C_19  and  O_29
REMARK                            x       y       z     vdW  Elec       q    Type
REMARK                         _______ _______ _______ _____ _____    ______ ____
ROOT
ATOM      1  O   UNL     1      36.221 -19.473 -23.453  0.00  0.00    -0.272 OA
ATOM      2  N   UNL     1      35.271 -20.124 -21.435  0.00  0.00    -0.274 N 
ATOM      3  N   UNL     1      35.404 -21.499 -18.892  0.00  0.00    -0.231 N 
ATOM      4  N   UNL     1      34.311 -22.513 -17.056  0.00  0.00    -0.332 NA
ATOM      5  N   UNL     1      36.712 -22.320 -17.105  0.00  0.00    -0.317 NA
ATOM      6  N   UNL     1      38.019 -23.136 -15.327  0.00  0.00    -0.335 N 
ATOM      7  C   UNL     1      34.186 -20.036 -20.456  0.00  0.00    +0.116 C 
ATOM      8  C   UNL     1      36.370 -21.028 -21.107  0.00  0.00    +0.116 C 
ATOM      9  C   UNL     1      34.113 -21.258 -19.541  0.00  0.00    +0.125 C 
ATOM     10  C   UNL     1      36.621 -21.097 -19.603  0.00  0.00    +0.125 C 
ATOM     11  C   UNL     1      35.309 -19.400 -22.628  0.00  0.00    +0.253 C 
ATOM     12  C   UNL     1      35.480 -22.127 -17.651  0.00  0.00    +0.203 C 
ATOM     13  C   UNL     1      34.377 -23.119 -15.857  0.00  0.00    +0.138 C 
ATOM     14  C   UNL     1      35.607 -23.357 -15.223  0.00  0.00    +0.146 C 
ATOM     15  C   UNL     1      36.742 -22.930 -15.905  0.00  0.00    +0.178 C 
ATOM     16  C   UNL     1      33.218 -23.534 -15.205  0.00  0.00    +0.069 C 
ATOM     17  C   UNL     1      35.663 -23.993 -13.970  0.00  0.00    +0.029 C 
ATOM     18  C   UNL     1      33.265 -24.166 -13.959  0.00  0.00    +0.174 C 
ATOM     19  C   UNL     1      34.489 -24.396 -13.340  0.00  0.00    +0.169 C 
ATOM     20  H   UNL     1      38.829 -22.838 -15.801  0.00  0.00    +0.144 HD
ATOM     21  H   UNL     1      38.098 -23.578 -14.451  0.00  0.00    +0.144 HD
ENDROOT
BRANCH  11  23
ATOM     22  O   UNL     1      34.402 -17.289 -22.160  0.00  0.00    -0.347 OA
ATOM     23  C   UNL     1      34.146 -18.494 -22.888  0.00  0.00    +0.191 C 
ATOM     24  C   UNL     1      34.016 -18.121 -24.352  0.00  0.00    +0.042 C 
ATOM     25  C   UNL     1      34.826 -16.849 -24.439  0.00  0.00    +0.035 C 
ATOM     26  C   UNL     1      34.558 -16.213 -23.094  0.00  0.00    +0.143 C 
ENDBRANCH  11  23
BRANCH  18  27
ATOM     27  O   UNL     1      32.103 -24.552 -13.361  0.00  0.00    -0.468 OA
ATOM     28  C   UNL     1      31.075 -25.056 -14.210  0.00  0.00    +0.253 C 
ENDBRANCH  18  27
BRANCH  19  29
ATOM     29  O   UNL     1      34.551 -25.011 -12.127  0.00  0.00    -0.469 OA
ATOM     30  C   UNL     1      35.609 -24.619 -11.255  0.00  0.00    +0.253 C 
ENDBRANCH  19  29
TORSDOF 3
ENDMDL
MODEL 7
REMARK VINA RESULT:      -8.3     10.508     14.793
REMARK  Name = 5401
REMARK  3 active torsions:
REMARK  status: ('A' for Active; 'I' for Inactive)
REMARK    1  A    between atoms: C_11  and  C_23
REMARK    2  A    between atoms: C_18  and  O_27
REMARK    3  A    between atoms: C_19  and  O_29
REMARK                            x       y       z     vdW  Elec       q    Type
REMARK                         _______ _______ _______ _____ _____    ______ ____
ROOT
ATOM      1  O   UNL     1      32.990 -18.890 -22.307  0.00  0.00    -0.272 OA
ATOM      2  N   UNL     1      34.390 -20.146 -20.943  0.00  0.00    -0.274 N 
ATOM      3  N   UNL     1      34.864 -21.755 -18.585  0.00  0.00    -0.231 N 
ATOM      4  N   UNL     1      36.363 -22.658 -16.993  0.00  0.00    -0.332 NA
ATOM      5  N   UNL     1      34.017 -23.205 -16.925  0.00  0.00    -0.317 NA
ATOM      6  N   UNL     1      33.168 -24.650 -15.273  0.00  0.00    -0.335 N 
ATOM      7  C   UNL     1      35.676 -20.807 -20.710  0.00  0.00    +0.116 C 
ATOM      8  C   UNL     1      33.402 -20.250 -19.874  0.00  0.00    +0.116 C 
ATOM      9  C   UNL     1      35.966 -21.032 -19.226  0.00  0.00    +0.125 C 
ATOM     10  C   UNL     1      33.513 -21.575 -19.123  0.00  0.00    +0.125 C 
ATOM     11  C   UNL     1      34.071 -19.448 -22.110  0.00  0.00    +0.253 C 
ATOM     12  C   UNL     1      35.085 -22.562 -17.472  0.00  0.00    +0.203 C 
ATOM     13  C   UNL     1      36.582 -23.436 -15.918  0.00  0.00    +0.138 C 
ATOM     14  C   UNL     1      35.537 -24.135 -15.293  0.00  0.00    +0.146 C 
ATOM     15  C   UNL     1      34.272 -23.975 -15.850  0.00  0.00    +0.178 C 
ATOM     16  C   UNL     1      37.863 -23.571 -15.388  0.00  0.00    +0.069 C 
ATOM     17  C   UNL     1      35.779 -24.945 -14.170  0.00  0.00    +0.029 C 
ATOM     18  C   UNL     1      38.113 -24.375 -14.272  0.00  0.00    +0.174 C 
ATOM     19  C   UNL     1      37.070 -25.063 -13.662  0.00  0.00    +0.169 C 
ATOM     20  H   UNL     1      32.268 -24.543 -15.659  0.00  0.00    +0.144 HD
ATOM     21  H   UNL     1      33.299 -25.225 -14.485  0.00  0.00    +0.144 HD
ENDROOT
BRANCH  11  23
ATOM     22  O   UNL     1      34.465 -19.436 -24.420  0.00  0.00    -0.347 OA
ATOM     23  C   UNL     1      35.138 -19.390 -23.158  0.00  0.00    +0.191 C 
ATOM     24  C   UNL     1      35.928 -18.097 -23.111  0.00  0.00    +0.042 C 
ATOM     25  C   UNL     1      35.162 -17.209 -24.063  0.00  0.00    +0.035 C 
ATOM     26  C   UNL     1      34.695 -18.199 -25.107  0.00  0.00    +0.143 C 
ENDBRANCH  11  23
BRANCH  18  27
ATOM     27  O   UNL     1      39.384 -24.475 -13.791  0.00  0.00    -0.468 OA
ATOM     28  C   UNL     1      40.258 -25.382 -14.459  0.00  0.00    +0.253 C 
ENDBRANCH  18  27
BRANCH  19  29
ATOM     29  O   UNL     1      37.297 -25.849 -12.573  0.00  0.00    -0.469 OA
ATOM     30  C   UNL     1      36.944 -25.311 -11.300  0.00  0.00    +0.253 C 
ENDBRANCH  19  29
TORSDOF 3
ENDMDL
MODEL 8
REMARK VINA RESULT:      -8.2      3.755     11.069
REMARK  Name = 5401
REMARK  3 active torsions:
REMARK  status: ('A' for Active; 'I' for Inactive)
REMARK    1  A    between atoms: C_11  and  C_23
REMARK    2  A    between atoms: C_18  and  O_27
REMARK    3  A    between atoms: C_19  and  O_29
REMARK                            x       y       z     vdW  Elec       q    Type
REMARK                         _______ _______ _______ _____ _____    ______ ____
ROOT
ATOM      1  O   UNL     1      33.315 -20.446 -20.355  0.00  0.00    -0.272 OA
ATOM      2  N   UNL     1      33.920 -18.364 -21.190  0.00  0.00    -0.274 N 
ATOM      3  N   UNL     1      33.335 -15.587 -21.757  0.00  0.00    -0.231 N 
ATOM      4  N   UNL     1      33.781 -13.611 -22.978  0.00  0.00    -0.332 NA
ATOM      5  N   UNL     1      32.115 -13.632 -21.238  0.00  0.00    -0.317 NA
ATOM      6  N   UNL     1      30.899 -11.687 -20.716  0.00  0.00    -0.335 N 
ATOM      7  C   UNL     1      34.941 -17.455 -21.718  0.00  0.00    +0.116 C 
ATOM      8  C   UNL     1      32.569 -17.824 -21.070  0.00  0.00    +0.116 C 
ATOM      9  C   UNL     1      34.346 -16.307 -22.534  0.00  0.00    +0.125 C 
ATOM     10  C   UNL     1      32.578 -16.332 -20.747  0.00  0.00    +0.125 C 
ATOM     11  C   UNL     1      34.173 -19.680 -20.799  0.00  0.00    +0.253 C 
ATOM     12  C   UNL     1      33.069 -14.241 -21.995  0.00  0.00    +0.203 C 
ATOM     13  C   UNL     1      33.530 -12.311 -23.213  0.00  0.00    +0.138 C 
ATOM     14  C   UNL     1      32.563 -11.607 -22.477  0.00  0.00    +0.146 C 
ATOM     15  C   UNL     1      31.888 -12.331 -21.498  0.00  0.00    +0.178 C 
ATOM     16  C   UNL     1      34.225 -11.619 -24.202  0.00  0.00    +0.069 C 
ATOM     17  C   UNL     1      32.309 -10.247 -22.732  0.00  0.00    +0.029 C 
ATOM     18  C   UNL     1      33.979 -10.268 -24.462  0.00  0.00    +0.174 C 
ATOM     19  C   UNL     1      33.019  -9.581 -23.725  0.00  0.00    +0.169 C 
ATOM     20  H   UNL     1      30.415 -12.191 -20.021  0.00  0.00    +0.144 HD
ATOM     21  H   UNL     1      30.693 -10.736 -20.866  0.00  0.00    +0.144 HD
ENDROOT
BRANCH  11  23
ATOM     22  O   UNL     1      36.364 -19.411 -20.011  0.00  0.00    -0.347 OA
ATOM     23  C   UNL     1      35.584 -20.156 -20.951  0.00  0.00    +0.191 C 
ATOM     24  C   UNL     1      35.741 -21.625 -20.610  0.00  0.00    +0.042 C 
ATOM     25  C   UNL     1      36.078 -21.586 -19.138  0.00  0.00    +0.035 C 
ATOM     26  C   UNL     1      36.897 -20.318 -19.038  0.00  0.00    +0.143 C 
ENDBRANCH  11  23
BRANCH  18  27
ATOM     27  O   UNL     1      34.686  -9.635 -25.439  0.00  0.00    -0.468 OA
ATOM     28  C   UNL     1      35.599 -10.428 -26.194  0.00  0.00    +0.253 C 
ENDBRANCH  18  27
BRANCH  19  29
ATOM     29  O   UNL     1      32.767  -8.265 -23.967  0.00  0.00    -0.469 OA
ATOM     30  C   UNL     1      31.514  -7.751 -23.520  0.00  0.00    +0.253 C 
ENDBRANCH  19  29
TORSDOF 3
ENDMDL
MODEL 9
REMARK VINA RESULT:      -7.9      4.343      7.527
REMARK  Name = 5401
REMARK  3 active torsions:
REMARK  status: ('A' for Active; 'I' for Inactive)
REMARK    1  A    between atoms: C_11  and  C_23
REMARK    2  A    between atoms: C_18  and  O_27
REMARK    3  A    between atoms: C_19  and  O_29
REMARK                            x       y       z     vdW  Elec       q    Type
REMARK                         _______ _______ _______ _____ _____    ______ ____
ROOT
ATOM      1  O   UNL     1      32.986 -10.485 -24.184  0.00  0.00    -0.272 OA
ATOM      2  N   UNL     1      32.819 -12.443 -22.943  0.00  0.00    -0.274 N 
ATOM      3  N   UNL     1      33.717 -15.113 -22.279  0.00  0.00    -0.231 N 
ATOM      4  N   UNL     1      33.288 -17.239 -21.335  0.00  0.00    -0.332 NA
ATOM      5  N   UNL     1      35.469 -16.696 -22.204  0.00  0.00    -0.317 NA
ATOM      6  N   UNL     1      37.217 -18.269 -22.131  0.00  0.00    -0.335 N 
ATOM      7  C   UNL     1      32.242 -13.192 -21.825  0.00  0.00    +0.116 C 
ATOM      8  C   UNL     1      33.790 -13.155 -23.769  0.00  0.00    +0.116 C 
ATOM      9  C   UNL     1      32.334 -14.707 -22.016  0.00  0.00    +0.125 C 
ATOM     10  C   UNL     1      34.601 -14.161 -22.957  0.00  0.00    +0.125 C 
ATOM     11  C   UNL     1      32.501 -11.117 -23.243  0.00  0.00    +0.253 C 
ATOM     12  C   UNL     1      34.172 -16.382 -21.930  0.00  0.00    +0.203 C 
ATOM     13  C   UNL     1      33.721 -18.467 -20.996  0.00  0.00    +0.138 C 
ATOM     14  C   UNL     1      35.043 -18.871 -21.242  0.00  0.00    +0.146 C 
ATOM     15  C   UNL     1      35.870 -17.932 -21.851  0.00  0.00    +0.178 C 
ATOM     16  C   UNL     1      32.864 -19.380 -20.388  0.00  0.00    +0.069 C 
ATOM     17  C   UNL     1      35.484 -20.157 -20.883  0.00  0.00    +0.029 C 
ATOM     18  C   UNL     1      33.294 -20.661 -20.028  0.00  0.00    +0.174 C 
ATOM     19  C   UNL     1      34.607 -21.050 -20.276  0.00  0.00    +0.169 C 
ATOM     20  H   UNL     1      37.810 -17.611 -22.562  0.00  0.00    +0.144 HD
ATOM     21  H   UNL     1      37.561 -19.160 -21.894  0.00  0.00    +0.144 HD
ENDROOT
BRANCH  11  23
ATOM     22  O   UNL     1      32.158 -10.245 -21.094  0.00  0.00    -0.347 OA
ATOM     23  C   UNL     1      31.499 -10.459 -22.346  0.00  0.00    +0.191 C 
ATOM     24  C   UNL     1      31.058  -9.104 -22.865  0.00  0.00    +0.042 C 
ATOM     25  C   UNL     1      32.037  -8.164 -22.201  0.00  0.00    +0.035 C 
ATOM     26  C   UNL     1      32.257  -8.834 -20.864  0.00  0.00    +0.143 C 
ENDBRANCH  11  23
BRANCH  18  27
ATOM     27  O   UNL     1      32.418 -21.518 -19.434  0.00  0.00    -0.468 OA
ATOM     28  C   UNL     1      32.813 -22.088 -18.188  0.00  0.00    +0.253 C 
ENDBRANCH  18  27
BRANCH  19  29
ATOM     29  O   UNL     1      35.040 -22.293 -19.931  0.00  0.00    -0.469 OA
ATOM     30  C   UNL     1      35.972 -22.380 -18.854  0.00  0.00    +0.253 C 
ENDBRANCH  19  29
TORSDOF 3
ENDMDL
