MODEL 1
REMARK VINA RESULT:      -9.9      0.000      0.000
REMARK  Name = 62309
REMARK  6 active torsions:
REMARK  status: ('A' for Active; 'I' for Inactive)
REMARK    1  A    between atoms: N_1  and  C_19
REMARK    2  A    between atoms: C_2  and  N_9
REMARK    3  A    between atoms: N_9  and  C_11
REMARK    4  A    between atoms: C_10  and  C_17
REMARK    5  A    between atoms: C_19  and  C_21
REMARK    6  A    between atoms: C_21  and  C_23
REMARK                            x       y       z     vdW  Elec       q    Type
REMARK                         _______ _______ _______ _____ _____    ______ ____
ROOT
ATOM      1  N   UNL     1      34.342 -17.257 -21.823  0.00  0.00    +0.389 N 
ATOM      2  C   UNL     1      33.720 -14.412 -22.102  0.00  0.00    +0.076 C 
ATOM      3  C   UNL     1      32.761 -15.394 -21.430  0.00  0.00    -0.003 C 
ATOM      4  C   UNL     1      34.629 -15.149 -23.085  0.00  0.00    -0.003 C 
ATOM      5  C   UNL     1      33.516 -16.575 -20.816  0.00  0.00    -0.076 C 
ATOM      6  C   UNL     1      35.323 -16.338 -22.417  0.00  0.00    -0.076 C 
ATOM      7  H   UNL     1      33.726 -17.583 -22.566  0.00  0.00    -0.080 HD
ENDROOT
BRANCH   2   9
ATOM      8  O   UNL     1      31.487 -11.534 -22.575  0.00  0.00    -0.275 OA
ATOM      9  N   UNL     1      32.994 -13.353 -22.759  0.00  0.00    -0.260 N 
ATOM     10  C   UNL     1      32.131 -12.453 -22.065  0.00  0.00    +0.229 C 
BRANCH   9  11
ATOM     11  C   UNL     1      33.148 -13.197 -24.204  0.00  0.00    +0.054 C 
ATOM     12  C   UNL     1      33.795 -12.083 -24.652  0.00  0.00    +0.015 C 
ATOM     13  C   UNL     1      32.634 -14.173 -25.004  0.00  0.00    +0.015 C 
ATOM     14  C   UNL     1      33.943 -11.933 -26.031  0.00  0.00    +0.001 C 
ATOM     15  C   UNL     1      32.783 -14.022 -26.382  0.00  0.00    +0.001 C 
ATOM     16  C   UNL     1      33.437 -12.902 -26.896  0.00  0.00    +0.000 C 
ENDBRANCH   9  11
BRANCH  10  17
ATOM     17  C   UNL     1      32.065 -12.659 -20.554  0.00  0.00    +0.086 C 
ATOM     18  C   UNL     1      31.505 -11.452 -19.818  0.00  0.00    +0.010 C 
ENDBRANCH  10  17
ENDBRANCH   2   9
BRANCH   1  19
ATOM     19  C   UNL     1      35.017 -18.412 -21.232  0.00  0.00    -0.053 C 
ATOM     20  C   UNL     1      36.450 -18.453 -21.764  0.00  0.00    -0.023 C 
BRANCH  19  21
ATOM     21  C   UNL     1      34.225 -19.692 -21.557  0.00  0.00    +0.012 C 
BRANCH  21  23
ATOM     22  S   UNL     1      35.652 -21.274 -19.804  0.00  0.00    -0.091 S 
ATOM     23  C   UNL     1      34.185 -20.671 -20.406  0.00  0.00    +0.005 C 
ATOM     24  C   UNL     1      33.087 -21.148 -19.767  0.00  0.00    +0.003 C 
ATOM     25  C   UNL     1      33.453 -22.055 -18.731  0.00  0.00    +0.007 C 
ATOM     26  C   UNL     1      34.819 -22.215 -18.642  0.00  0.00    +0.035 C 
ENDBRANCH  21  23
ENDBRANCH  19  21
ENDBRANCH   1  19
TORSDOF 6
ENDMDL
MODEL 2
REMARK VINA RESULT:      -9.7      5.489     11.291
REMARK  Name = 62309
REMARK  6 active torsions:
REMARK  status: ('A' for Active; 'I' for Inactive)
REMARK    1  A    between atoms: N_1  and  C_19
REMARK    2  A    between atoms: C_2  and  N_9
REMARK    3  A    between atoms: N_9  and  C_11
REMARK    4  A    between atoms: C_10  and  C_17
REMARK    5  A    between atoms: C_19  and  C_21
REMARK    6  A    between atoms: C_21  and  C_23
REMARK                            x       y       z     vdW  Elec       q    Type
REMARK                         _______ _______ _______ _____ _____    ______ ____
ROOT
ATOM      1  N   UNL     1      35.544 -22.160 -18.955  0.00  0.00    +0.389 N 
ATOM      2  C   UNL     1      34.697 -22.738 -16.215  0.00  0.00    +0.076 C 
ATOM      3  C   UNL     1      36.165 -22.535 -16.589  0.00  0.00    -0.003 C 
ATOM      4  C   UNL     1      33.902 -23.211 -17.433  0.00  0.00    -0.003 C 
ATOM      5  C   UNL     1      36.305 -21.630 -17.814  0.00  0.00    -0.076 C 
ATOM      6  C   UNL     1      34.117 -22.283 -18.630  0.00  0.00    -0.076 C 
ATOM      7  H   UNL     1      35.901 -23.091 -19.164  0.00  0.00    -0.080 HD
ENDROOT
BRANCH   2   9
ATOM      8  O   UNL     1      33.224 -24.556 -13.383  0.00  0.00    -0.275 OA
ATOM      9  N   UNL     1      34.570 -23.668 -15.120  0.00  0.00    -0.260 N 
ATOM     10  C   UNL     1      33.387 -23.782 -14.329  0.00  0.00    +0.229 C 
BRANCH   9  11
ATOM     11  C   UNL     1      35.705 -24.532 -14.805  0.00  0.00    +0.054 C 
ATOM     12  C   UNL     1      36.615 -24.072 -13.899  0.00  0.00    +0.015 C 
ATOM     13  C   UNL     1      35.777 -25.737 -15.438  0.00  0.00    +0.015 C 
ATOM     14  C   UNL     1      37.699 -24.897 -13.598  0.00  0.00    +0.001 C 
ATOM     15  C   UNL     1      36.861 -26.560 -15.136  0.00  0.00    +0.001 C 
ATOM     16  C   UNL     1      37.822 -26.141 -14.216  0.00  0.00    +0.000 C 
ENDBRANCH   9  11
BRANCH  10  17
ATOM     17  C   UNL     1      32.236 -22.876 -14.756  0.00  0.00    +0.086 C 
ATOM     18  C   UNL     1      30.975 -23.651 -15.108  0.00  0.00    +0.010 C 
ENDBRANCH  10  17
ENDBRANCH   2   9
BRANCH   1  19
ATOM     19  C   UNL     1      35.730 -21.310 -20.132  0.00  0.00    -0.053 C 
ATOM     20  C   UNL     1      37.023 -20.516 -19.949  0.00  0.00    -0.023 C 
BRANCH  19  21
ATOM     21  C   UNL     1      34.496 -20.406 -20.312  0.00  0.00    +0.012 C 
BRANCH  21  23
ATOM     22  S   UNL     1      34.691 -17.758 -21.061  0.00  0.00    -0.091 S 
ATOM     23  C   UNL     1      34.653 -19.411 -21.439  0.00  0.00    +0.005 C 
ATOM     24  C   UNL     1      34.772 -19.679 -22.765  0.00  0.00    +0.003 C 
ATOM     25  C   UNL     1      34.901 -18.477 -23.518  0.00  0.00    +0.007 C 
ATOM     26  C   UNL     1      34.872 -17.357 -22.716  0.00  0.00    +0.035 C 
ENDBRANCH  21  23
ENDBRANCH  19  21
ENDBRANCH   1  19
TORSDOF 6
ENDMDL
MODEL 3
REMARK VINA RESULT:      -9.7      1.493      2.437
REMARK  Name = 62309
REMARK  6 active torsions:
REMARK  status: ('A' for Active; 'I' for Inactive)
REMARK    1  A    between atoms: N_1  and  C_19
REMARK    2  A    between atoms: C_2  and  N_9
REMARK    3  A    between atoms: N_9  and  C_11
REMARK    4  A    between atoms: C_10  and  C_17
REMARK    5  A    between atoms: C_19  and  C_21
REMARK    6  A    between atoms: C_21  and  C_23
REMARK                            x       y       z     vdW  Elec       q    Type
REMARK                         _______ _______ _______ _____ _____    ______ ____
ROOT
ATOM      1  N   UNL     1      34.898 -15.985 -23.042  0.00  0.00    +0.389 N 
ATOM      2  C   UNL     1      33.192 -13.608 -23.012  0.00  0.00    +0.076 C 
ATOM      3  C   UNL     1      33.520 -14.361 -24.302  0.00  0.00    -0.003 C 
ATOM      4  C   UNL     1      34.288 -13.839 -21.973  0.00  0.00    -0.003 C 
ATOM      5  C   UNL     1      33.814 -15.836 -24.024  0.00  0.00    -0.076 C 
ATOM      6  C   UNL     1      34.557 -15.332 -21.771  0.00  0.00    -0.076 C 
ATOM      7  H   UNL     1      35.728 -15.526 -23.419  0.00  0.00    -0.080 HD
ENDROOT
BRANCH   2   9
ATOM      8  O   UNL     1      31.880 -10.188 -22.736  0.00  0.00    -0.275 OA
ATOM      9  N   UNL     1      33.010 -12.201 -23.271  0.00  0.00    -0.260 N 
ATOM     10  C   UNL     1      32.077 -11.393 -22.556  0.00  0.00    +0.229 C 
BRANCH   9  11
ATOM     11  C   UNL     1      33.819 -11.575 -24.314  0.00  0.00    +0.054 C 
ATOM     12  C   UNL     1      33.790 -12.136 -25.557  0.00  0.00    +0.015 C 
ATOM     13  C   UNL     1      34.548 -10.475 -23.974  0.00  0.00    +0.015 C 
ATOM     14  C   UNL     1      34.562 -11.538 -26.554  0.00  0.00    +0.001 C 
ATOM     15  C   UNL     1      35.320  -9.878 -24.971  0.00  0.00    +0.001 C 
ATOM     16  C   UNL     1      35.326 -10.409 -26.261  0.00  0.00    +0.000 C 
ENDBRANCH   9  11
BRANCH  10  17
ATOM     17  C   UNL     1      31.308 -12.116 -21.454  0.00  0.00    +0.086 C 
ATOM     18  C   UNL     1      31.569 -11.534 -20.074  0.00  0.00    +0.010 C 
ENDBRANCH  10  17
ENDBRANCH   2   9
BRANCH   1  19
ATOM     19  C   UNL     1      35.201 -17.399 -22.826  0.00  0.00    -0.053 C 
ATOM     20  C   UNL     1      34.948 -18.149 -24.134  0.00  0.00    -0.023 C 
BRANCH  19  21
ATOM     21  C   UNL     1      34.349 -17.934 -21.660  0.00  0.00    +0.012 C 
BRANCH  21  23
ATOM     22  S   UNL     1      33.908 -20.362 -20.425  0.00  0.00    -0.091 S 
ATOM     23  C   UNL     1      34.951 -19.153 -20.999  0.00  0.00    +0.005 C 
ATOM     24  C   UNL     1      36.268 -19.417 -20.798  0.00  0.00    +0.003 C 
ATOM     25  C   UNL     1      36.443 -20.669 -20.141  0.00  0.00    +0.007 C 
ATOM     26  C   UNL     1      35.241 -21.288 -19.879  0.00  0.00    +0.035 C 
ENDBRANCH  21  23
ENDBRANCH  19  21
ENDBRANCH   1  19
TORSDOF 6
ENDMDL
MODEL 4
REMARK VINA RESULT:      -9.1      4.976      9.707
REMARK  Name = 62309
REMARK  6 active torsions:
REMARK  status: ('A' for Active; 'I' for Inactive)
REMARK    1  A    between atoms: N_1  and  C_19
REMARK    2  A    between atoms: C_2  and  N_9
REMARK    3  A    between atoms: N_9  and  C_11
REMARK    4  A    between atoms: C_10  and  C_17
REMARK    5  A    between atoms: C_19  and  C_21
REMARK    6  A    between atoms: C_21  and  C_23
REMARK                            x       y       z     vdW  Elec       q    Type
REMARK                         _______ _______ _______ _____ _____    ______ ____
ROOT
ATOM      1  N   UNL     1      32.886  -9.636 -22.435  0.00  0.00    +0.389 N 
ATOM      2  C   UNL     1      32.603 -12.213 -23.792  0.00  0.00    +0.076 C 
ATOM      3  C   UNL     1      31.950 -11.927 -22.440  0.00  0.00    -0.003 C 
ATOM      4  C   UNL     1      33.825 -11.317 -23.989  0.00  0.00    -0.003 C 
ATOM      5  C   UNL     1      31.664 -10.434 -22.266  0.00  0.00    -0.076 C 
ATOM      6  C   UNL     1      33.477  -9.844 -23.765  0.00  0.00    -0.076 C 
ATOM      7  H   UNL     1      33.563  -9.947 -21.738  0.00  0.00    -0.080 HD
ENDROOT
BRANCH   2   9
ATOM      8  O   UNL     1      33.259 -15.494 -25.307  0.00  0.00    -0.275 OA
ATOM      9  N   UNL     1      32.956 -13.606 -23.907  0.00  0.00    -0.260 N 
ATOM     10  C   UNL     1      32.966 -14.306 -25.151  0.00  0.00    +0.229 C 
BRANCH   9  11
ATOM     11  C   UNL     1      33.320 -14.334 -22.694  0.00  0.00    +0.054 C 
ATOM     12  C   UNL     1      34.622 -14.714 -22.552  0.00  0.00    +0.015 C 
ATOM     13  C   UNL     1      32.333 -14.585 -21.788  0.00  0.00    +0.015 C 
ATOM     14  C   UNL     1      34.970 -15.409 -21.394  0.00  0.00    +0.001 C 
ATOM     15  C   UNL     1      32.681 -15.281 -20.630  0.00  0.00    +0.001 C 
ATOM     16  C   UNL     1      33.999 -15.692 -20.433  0.00  0.00    +0.000 C 
ENDBRANCH   9  11
BRANCH  10  17
ATOM     17  C   UNL     1      32.620 -13.458 -26.371  0.00  0.00    +0.086 C 
ATOM     18  C   UNL     1      33.743 -13.412 -27.396  0.00  0.00    +0.010 C 
ENDBRANCH  10  17
ENDBRANCH   2   9
BRANCH   1  19
ATOM     19  C   UNL     1      32.605  -8.217 -22.217  0.00  0.00    -0.053 C 
ATOM     20  C   UNL     1      32.383  -7.998 -20.720  0.00  0.00    -0.023 C 
BRANCH  19  21
ATOM     21  C   UNL     1      31.391  -7.798 -23.066  0.00  0.00    +0.012 C 
BRANCH  21  23
ATOM     22  S   UNL     1      30.900  -5.129 -22.564  0.00  0.00    -0.091 S 
ATOM     23  C   UNL     1      31.481  -6.372 -23.561  0.00  0.00    +0.005 C 
ATOM     24  C   UNL     1      31.985  -5.941 -24.746  0.00  0.00    +0.003 C 
ATOM     25  C   UNL     1      31.896  -4.524 -24.853  0.00  0.00    +0.007 C 
ATOM     26  C   UNL     1      31.325  -3.955 -23.735  0.00  0.00    +0.035 C 
ENDBRANCH  21  23
ENDBRANCH  19  21
ENDBRANCH   1  19
TORSDOF 6
ENDMDL
MODEL 5
REMARK VINA RESULT:      -9.1      3.471      8.434
REMARK  Name = 62309
REMARK  6 active torsions:
REMARK  status: ('A' for Active; 'I' for Inactive)
REMARK    1  A    between atoms: N_1  and  C_19
REMARK    2  A    between atoms: C_2  and  N_9
REMARK    3  A    between atoms: N_9  and  C_11
REMARK    4  A    between atoms: C_10  and  C_17
REMARK    5  A    between atoms: C_19  and  C_21
REMARK    6  A    between atoms: C_21  and  C_23
REMARK                            x       y       z     vdW  Elec       q    Type
REMARK                         _______ _______ _______ _____ _____    ______ ____
ROOT
ATOM      1  N   UNL     1      33.160 -14.341 -21.961  0.00  0.00    +0.389 N 
ATOM      2  C   UNL     1      34.371 -16.984 -21.633  0.00  0.00    +0.076 C 
ATOM      3  C   UNL     1      34.937 -15.940 -22.596  0.00  0.00    -0.003 C 
ATOM      4  C   UNL     1      32.881 -16.734 -21.400  0.00  0.00    -0.003 C 
ATOM      5  C   UNL     1      34.608 -14.520 -22.132  0.00  0.00    -0.076 C 
ATOM      6  C   UNL     1      32.620 -15.288 -20.975  0.00  0.00    -0.076 C 
ATOM      7  H   UNL     1      32.712 -14.530 -22.857  0.00  0.00    -0.080 HD
ENDROOT
BRANCH   2   9
ATOM      8  O   UNL     1      35.041 -19.727 -23.982  0.00  0.00    -0.275 OA
ATOM      9  N   UNL     1      34.603 -18.318 -22.128  0.00  0.00    -0.260 N 
ATOM     10  C   UNL     1      34.838 -18.608 -23.505  0.00  0.00    +0.229 C 
BRANCH   9  11
ATOM     11  C   UNL     1      34.595 -19.425 -21.174  0.00  0.00    +0.054 C 
ATOM     12  C   UNL     1      33.384 -19.928 -20.800  0.00  0.00    +0.015 C 
ATOM     13  C   UNL     1      35.799 -19.879 -20.722  0.00  0.00    +0.015 C 
ATOM     14  C   UNL     1      33.376 -20.984 -19.890  0.00  0.00    +0.001 C 
ATOM     15  C   UNL     1      35.790 -20.935 -19.812  0.00  0.00    +0.001 C 
ATOM     16  C   UNL     1      34.579 -21.488 -19.396  0.00  0.00    +0.000 C 
ENDBRANCH   9  11
BRANCH  10  17
ATOM     17  C   UNL     1      34.875 -17.390 -24.423  0.00  0.00    +0.086 C 
ATOM     18  C   UNL     1      33.887 -17.489 -25.574  0.00  0.00    +0.010 C 
ENDBRANCH  10  17
ENDBRANCH   2   9
BRANCH   1  19
ATOM     19  C   UNL     1      32.858 -12.965 -21.566  0.00  0.00    -0.053 C 
ATOM     20  C   UNL     1      31.992 -13.007 -20.307  0.00  0.00    -0.023 C 
BRANCH  19  21
ATOM     21  C   UNL     1      32.174 -12.233 -22.735  0.00  0.00    +0.012 C 
BRANCH  21  23
ATOM     22  S   UNL     1      32.595  -9.507 -22.800  0.00  0.00    -0.091 S 
ATOM     23  C   UNL     1      32.995 -11.085 -23.276  0.00  0.00    +0.005 C 
ATOM     24  C   UNL     1      34.052 -11.156 -24.125  0.00  0.00    +0.003 C 
ATOM     25  C   UNL     1      34.567  -9.858 -24.407  0.00  0.00    +0.007 C 
ATOM     26  C   UNL     1      33.867  -8.869 -23.751  0.00  0.00    +0.035 C 
ENDBRANCH  21  23
ENDBRANCH  19  21
ENDBRANCH   1  19
TORSDOF 6
ENDMDL
MODEL 6
REMARK VINA RESULT:      -9.1      5.594     11.242
REMARK  Name = 62309
REMARK  6 active torsions:
REMARK  status: ('A' for Active; 'I' for Inactive)
REMARK    1  A    between atoms: N_1  and  C_19
REMARK    2  A    between atoms: C_2  and  N_9
REMARK    3  A    between atoms: N_9  and  C_11
REMARK    4  A    between atoms: C_10  and  C_17
REMARK    5  A    between atoms: C_19  and  C_21
REMARK    6  A    between atoms: C_21  and  C_23
REMARK                            x       y       z     vdW  Elec       q    Type
REMARK                         _______ _______ _______ _____ _____    ______ ____
ROOT
ATOM      1  N   UNL     1      34.736 -21.669 -18.688  0.00  0.00    +0.389 N 
ATOM      2  C   UNL     1      34.701 -23.598 -16.489  0.00  0.00    +0.076 C 
ATOM      3  C   UNL     1      33.467 -23.314 -17.345  0.00  0.00    -0.003 C 
ATOM      4  C   UNL     1      35.642 -22.393 -16.503  0.00  0.00    -0.003 C 
ATOM      5  C   UNL     1      33.859 -22.847 -18.748  0.00  0.00    -0.076 C 
ATOM      6  C   UNL     1      35.963 -21.957 -17.934  0.00  0.00    -0.076 C 
ATOM      7  H   UNL     1      34.233 -20.928 -18.200  0.00  0.00    -0.080 HD
ENDROOT
BRANCH   2   9
ATOM      8  O   UNL     1      34.998 -24.644 -12.980  0.00  0.00    -0.275 OA
ATOM      9  N   UNL     1      34.322 -23.944 -15.141  0.00  0.00    -0.260 N 
ATOM     10  C   UNL     1      35.266 -24.336 -14.144  0.00  0.00    +0.229 C 
BRANCH   9  11
ATOM     11  C   UNL     1      32.908 -23.892 -14.780  0.00  0.00    +0.054 C 
ATOM     12  C   UNL     1      32.292 -25.069 -14.469  0.00  0.00    +0.015 C 
ATOM     13  C   UNL     1      32.300 -22.672 -14.779  0.00  0.00    +0.015 C 
ATOM     14  C   UNL     1      30.941 -25.020 -14.124  0.00  0.00    +0.001 C 
ATOM     15  C   UNL     1      30.950 -22.624 -14.434  0.00  0.00    +0.001 C 
ATOM     16  C   UNL     1      30.270 -23.797 -14.106  0.00  0.00    +0.000 C 
ENDBRANCH   9  11
BRANCH  10  17
ATOM     17  C   UNL     1      36.724 -24.318 -14.593  0.00  0.00    +0.086 C 
ATOM     18  C   UNL     1      37.278 -25.711 -14.851  0.00  0.00    +0.010 C 
ENDBRANCH  10  17
ENDBRANCH   2   9
BRANCH   1  19
ATOM     19  C   UNL     1      35.061 -21.205 -20.037  0.00  0.00    -0.053 C 
ATOM     20  C   UNL     1      36.501 -20.693 -20.033  0.00  0.00    -0.023 C 
BRANCH  19  21
ATOM     21  C   UNL     1      34.048 -20.129 -20.469  0.00  0.00    +0.012 C 
BRANCH  21  23
ATOM     22  S   UNL     1      34.943 -17.611 -21.157  0.00  0.00    -0.091 S 
ATOM     23  C   UNL     1      34.578 -19.220 -21.554  0.00  0.00    +0.005 C 
ATOM     24  C   UNL     1      34.809 -19.535 -22.854  0.00  0.00    +0.003 C 
ATOM     25  C   UNL     1      35.310 -18.411 -23.571  0.00  0.00    +0.007 C 
ATOM     26  C   UNL     1      35.431 -17.298 -22.768  0.00  0.00    +0.035 C 
ENDBRANCH  21  23
ENDBRANCH  19  21
ENDBRANCH   1  19
TORSDOF 6
ENDMDL
MODEL 7
REMARK VINA RESULT:      -9.0      4.192      8.756
REMARK  Name = 62309
REMARK  6 active torsions:
REMARK  status: ('A' for Active; 'I' for Inactive)
REMARK    1  A    between atoms: N_1  and  C_19
REMARK    2  A    between atoms: C_2  and  N_9
REMARK    3  A    between atoms: N_9  and  C_11
REMARK    4  A    between atoms: C_10  and  C_17
REMARK    5  A    between atoms: C_19  and  C_21
REMARK    6  A    between atoms: C_21  and  C_23
REMARK                            x       y       z     vdW  Elec       q    Type
REMARK                         _______ _______ _______ _____ _____    ______ ____
ROOT
ATOM      1  N   UNL     1      32.301 -11.510 -22.746  0.00  0.00    +0.389 N 
ATOM      2  C   UNL     1      33.705 -14.004 -23.353  0.00  0.00    +0.076 C 
ATOM      3  C   UNL     1      33.898 -12.736 -24.185  0.00  0.00    -0.003 C 
ATOM      4  C   UNL     1      32.341 -13.982 -22.665  0.00  0.00    -0.003 C 
ATOM      5  C   UNL     1      33.640 -11.480 -23.351  0.00  0.00    -0.076 C 
ATOM      6  C   UNL     1      32.135 -12.685 -21.880  0.00  0.00    -0.076 C 
ATOM      7  H   UNL     1      31.618 -11.576 -23.500  0.00  0.00    -0.080 HD
ENDROOT
BRANCH   2   9
ATOM      8  O   UNL     1      33.537 -16.222 -26.276  0.00  0.00    -0.275 OA
ATOM      9  N   UNL     1      33.856 -15.182 -24.171  0.00  0.00    -0.260 N 
ATOM     10  C   UNL     1      33.434 -15.243 -25.533  0.00  0.00    +0.229 C 
BRANCH   9  11
ATOM     11  C   UNL     1      34.467 -16.368 -23.576  0.00  0.00    +0.054 C 
ATOM     12  C   UNL     1      34.751 -16.330 -22.243  0.00  0.00    +0.015 C 
ATOM     13  C   UNL     1      34.712 -17.431 -24.394  0.00  0.00    +0.015 C 
ATOM     14  C   UNL     1      35.334 -17.463 -21.674  0.00  0.00    +0.001 C 
ATOM     15  C   UNL     1      35.295 -18.562 -23.825  0.00  0.00    +0.001 C 
ATOM     16  C   UNL     1      35.606 -18.579 -22.465  0.00  0.00    +0.000 C 
ENDBRANCH   9  11
BRANCH  10  17
ATOM     17  C   UNL     1      32.850 -13.947 -26.086  0.00  0.00    +0.086 C 
ATOM     18  C   UNL     1      33.443 -13.560 -27.432  0.00  0.00    +0.010 C 
ENDBRANCH  10  17
ENDBRANCH   2   9
BRANCH   1  19
ATOM     19  C   UNL     1      32.052 -10.280 -21.994  0.00  0.00    -0.053 C 
ATOM     20  C   UNL     1      31.339 -10.651 -20.693  0.00  0.00    -0.023 C 
BRANCH  19  21
ATOM     21  C   UNL     1      31.238  -9.303 -22.861  0.00  0.00    +0.012 C 
BRANCH  21  23
ATOM     22  S   UNL     1      31.288  -6.891 -24.201  0.00  0.00    -0.091 S 
ATOM     23  C   UNL     1      32.076  -8.183 -23.435  0.00  0.00    +0.005 C 
ATOM     24  C   UNL     1      33.429  -8.074 -23.417  0.00  0.00    +0.003 C 
ATOM     25  C   UNL     1      33.853  -6.875 -24.060  0.00  0.00    +0.007 C 
ATOM     26  C   UNL     1      32.789  -6.138 -24.533  0.00  0.00    +0.035 C 
ENDBRANCH  21  23
ENDBRANCH  19  21
ENDBRANCH   1  19
TORSDOF 6
ENDMDL
MODEL 8
REMARK VINA RESULT:      -9.0      3.243      5.150
REMARK  Name = 62309
REMARK  6 active torsions:
REMARK  status: ('A' for Active; 'I' for Inactive)
REMARK    1  A    between atoms: N_1  and  C_19
REMARK    2  A    between atoms: C_2  and  N_9
REMARK    3  A    between atoms: N_9  and  C_11
REMARK    4  A    between atoms: C_10  and  C_17
REMARK    5  A    between atoms: C_19  and  C_21
REMARK    6  A    between atoms: C_21  and  C_23
REMARK                            x       y       z     vdW  Elec       q    Type
REMARK                         _______ _______ _______ _____ _____    ______ ____
ROOT
ATOM      1  N   UNL     1      33.665 -13.201 -23.302  0.00  0.00    +0.389 N 
ATOM      2  C   UNL     1      32.300 -10.625 -23.051  0.00  0.00    +0.076 C 
ATOM      3  C   UNL     1      33.664 -10.763 -23.728  0.00  0.00    -0.003 C 
ATOM      4  C   UNL     1      32.089 -11.762 -22.052  0.00  0.00    -0.003 C 
ATOM      5  C   UNL     1      33.849 -12.160 -24.323  0.00  0.00    -0.076 C 
ATOM      6  C   UNL     1      32.325 -13.126 -22.703  0.00  0.00    -0.076 C 
ATOM      7  H   UNL     1      34.349 -13.041 -22.564  0.00  0.00    -0.080 HD
ENDROOT
BRANCH   2   9
ATOM      8  O   UNL     1      31.877  -8.114 -20.404  0.00  0.00    -0.275 OA
ATOM      9  N   UNL     1      32.173  -9.339 -22.411  0.00  0.00    -0.260 N 
ATOM     10  C   UNL     1      31.993  -9.186 -21.003  0.00  0.00    +0.229 C 
BRANCH   9  11
ATOM     11  C   UNL     1      32.230  -8.139 -23.241  0.00  0.00    +0.054 C 
ATOM     12  C   UNL     1      31.055  -7.667 -23.749  0.00  0.00    +0.015 C 
ATOM     13  C   UNL     1      33.452  -7.574 -23.453  0.00  0.00    +0.015 C 
ATOM     14  C   UNL     1      31.109  -6.520 -24.542  0.00  0.00    +0.001 C 
ATOM     15  C   UNL     1      33.504  -6.427 -24.245  0.00  0.00    +0.001 C 
ATOM     16  C   UNL     1      32.333  -5.901 -24.790  0.00  0.00    +0.000 C 
ENDBRANCH   9  11
BRANCH  10  17
ATOM     17  C   UNL     1      31.992 -10.488 -20.207  0.00  0.00    +0.086 C 
ATOM     18  C   UNL     1      31.285 -10.359 -18.867  0.00  0.00    +0.010 C 
ENDBRANCH  10  17
ENDBRANCH   2   9
BRANCH   1  19
ATOM     19  C   UNL     1      33.894 -14.526 -23.876  0.00  0.00    -0.053 C 
ATOM     20  C   UNL     1      33.145 -14.608 -25.207  0.00  0.00    -0.023 C 
BRANCH  19  21
ATOM     21  C   UNL     1      33.446 -15.606 -22.873  0.00  0.00    +0.012 C 
BRANCH  21  23
ATOM     22  S   UNL     1      35.014 -17.159 -21.218  0.00  0.00    -0.091 S 
ATOM     23  C   UNL     1      34.429 -16.748 -22.756  0.00  0.00    +0.005 C 
ATOM     24  C   UNL     1      34.923 -17.517 -23.760  0.00  0.00    +0.003 C 
ATOM     25  C   UNL     1      35.828 -18.495 -23.256  0.00  0.00    +0.007 C 
ATOM     26  C   UNL     1      35.970 -18.412 -21.888  0.00  0.00    +0.035 C 
ENDBRANCH  21  23
ENDBRANCH  19  21
ENDBRANCH   1  19
TORSDOF 6
ENDMDL
MODEL 9
REMARK VINA RESULT:      -8.9      3.711      5.949
REMARK  Name = 62309
REMARK  6 active torsions:
REMARK  status: ('A' for Active; 'I' for Inactive)
REMARK    1  A    between atoms: N_1  and  C_19
REMARK    2  A    between atoms: C_2  and  N_9
REMARK    3  A    between atoms: N_9  and  C_11
REMARK    4  A    between atoms: C_10  and  C_17
REMARK    5  A    between atoms: C_19  and  C_21
REMARK    6  A    between atoms: C_21  and  C_23
REMARK                            x       y       z     vdW  Elec       q    Type
REMARK                         _______ _______ _______ _____ _____    ______ ____
ROOT
ATOM      1  N   UNL     1      33.136 -12.111 -24.459  0.00  0.00    +0.389 N 
ATOM      2  C   UNL     1      32.979  -9.994 -22.446  0.00  0.00    +0.076 C 
ATOM      3  C   UNL     1      31.897 -11.064 -22.590  0.00  0.00    -0.003 C 
ATOM      4  C   UNL     1      33.717  -9.807 -23.771  0.00  0.00    -0.003 C 
ATOM      5  C   UNL     1      32.471 -12.358 -23.171  0.00  0.00    -0.076 C 
ATOM      6  C   UNL     1      34.231 -11.142 -24.313  0.00  0.00    -0.076 C 
ATOM      7  H   UNL     1      32.447 -11.715 -25.097  0.00  0.00    -0.080 HD
ENDROOT
BRANCH   2   9
ATOM      8  O   UNL     1      31.599  -7.457 -20.176  0.00  0.00    -0.275 OA
ATOM      9  N   UNL     1      32.412  -8.749 -21.988  0.00  0.00    -0.260 N 
ATOM     10  C   UNL     1      32.086  -8.499 -20.622  0.00  0.00    +0.229 C 
BRANCH   9  11
ATOM     11  C   UNL     1      32.159  -7.697 -22.969  0.00  0.00    +0.054 C 
ATOM     12  C   UNL     1      30.913  -7.634 -23.520  0.00  0.00    +0.015 C 
ATOM     13  C   UNL     1      33.185  -6.851 -23.267  0.00  0.00    +0.015 C 
ATOM     14  C   UNL     1      30.671  -6.629 -24.457  0.00  0.00    +0.001 C 
ATOM     15  C   UNL     1      32.942  -5.846 -24.204  0.00  0.00    +0.001 C 
ATOM     16  C   UNL     1      31.686  -5.735 -24.798  0.00  0.00    +0.000 C 
ENDBRANCH   9  11
BRANCH  10  17
ATOM     17  C   UNL     1      32.425  -9.633 -19.659  0.00  0.00    +0.086 C 
ATOM     18  C   UNL     1      31.193 -10.373 -19.162  0.00  0.00    +0.010 C 
ENDBRANCH  10  17
ENDBRANCH   2   9
BRANCH   1  19
ATOM     19  C   UNL     1      33.634 -13.365 -25.025  0.00  0.00    -0.053 C 
ATOM     20  C   UNL     1      33.393 -13.338 -26.534  0.00  0.00    -0.023 C 
BRANCH  19  21
ATOM     21  C   UNL     1      32.941 -14.553 -24.332  0.00  0.00    +0.012 C 
BRANCH  21  23
ATOM     22  S   UNL     1      34.260 -16.858 -25.080  0.00  0.00    -0.091 S 
ATOM     23  C   UNL     1      33.902 -15.652 -23.942  0.00  0.00    +0.005 C 
ATOM     24  C   UNL     1      34.541 -15.806 -22.753  0.00  0.00    +0.003 C 
ATOM     25  C   UNL     1      35.367 -16.967 -22.765  0.00  0.00    +0.007 C 
ATOM     26  C   UNL     1      35.308 -17.632 -23.970  0.00  0.00    +0.035 C 
ENDBRANCH  21  23
ENDBRANCH  19  21
ENDBRANCH   1  19
TORSDOF 6
ENDMDL
