MODEL 1
REMARK VINA RESULT:      -8.5      0.000      0.000
REMARK  Name = 65063
REMARK  7 active torsions:
REMARK  status: ('A' for Active; 'I' for Inactive)
REMARK    1  A    between atoms: C_2  and  O_15
REMARK    2  A    between atoms: C_3  and  C_17
REMARK    3  A    between atoms: C_5  and  N_8
REMARK    4  A    between atoms: C_17  and  O_18
REMARK    5  A    between atoms: O_18  and  P_19
REMARK    6  A    between atoms: P_19  and  O_21
REMARK    7  A    between atoms: P_19  and  O_23
REMARK                            x       y       z     vdW  Elec       q    Type
REMARK                         _______ _______ _______ _____ _____    ______ ____
ROOT
ATOM      1  O   UNL     1      35.810 -24.921 -15.798  0.00  0.00    -0.335 OA
ATOM      2  C   UNL     1      37.397 -23.460 -14.815  0.00  0.00    +0.144 C 
ATOM      3  C   UNL     1      36.810 -24.863 -14.763  0.00  0.00    +0.174 C 
ATOM      4  C   UNL     1      36.247 -22.628 -15.335  0.00  0.00    +0.083 C 
ATOM      5  C   UNL     1      35.538 -23.594 -16.269  0.00  0.00    +0.202 C 
ENDROOT
BRANCH   5   8
ATOM      6  O   UNL     1      34.059 -23.207 -18.641  0.00  0.00    -0.252 OA
ATOM      7  O   UNL     1      30.100 -22.806 -16.315  0.00  0.00    -0.270 OA
ATOM      8  N   UNL     1      34.120 -23.387 -16.313  0.00  0.00    -0.219 N 
ATOM      9  N   UNL     1      32.088 -23.007 -17.481  0.00  0.00    -0.236 N 
ATOM     10  C   UNL     1      33.474 -23.202 -17.555  0.00  0.00    +0.315 C 
ATOM     11  C   UNL     1      33.388 -23.369 -15.132  0.00  0.00    +0.076 C 
ATOM     12  C   UNL     1      32.068 -23.183 -15.077  0.00  0.00    +0.074 C 
ATOM     13  C   UNL     1      31.314 -22.980 -16.331  0.00  0.00    +0.254 C 
ATOM     14  H   UNL     1      31.614 -22.875 -18.334  0.00  0.00    +0.159 HD
ENDBRANCH   5   8
BRANCH   2  15
ATOM     15  O   UNL     1      38.478 -23.419 -15.744  0.00  0.00    -0.382 OA
ATOM     16  H   UNL     1      39.143 -24.080 -15.494  0.00  0.00    +0.210 HD
ENDBRANCH   2  15
BRANCH   3  17
ATOM     17  C   UNL     1      36.127 -25.172 -13.436  0.00  0.00    +0.186 C 
BRANCH  17  18
ATOM     18  O   UNL     1      36.941 -24.692 -12.379  0.00  0.00    -0.271 OA
BRANCH  18  19
ATOM     19  P   UNL     1      36.279 -23.700 -11.285  0.00  0.00    +0.473 P 
ATOM     20  O   UNL     1      36.211 -24.249  -9.891  0.00  0.00    -0.227 OA
BRANCH  19  21
ATOM     21  O   UNL     1      34.855 -23.301 -11.942  0.00  0.00    -0.303 OA
ATOM     22  H   UNL     1      34.256 -22.985 -11.247  0.00  0.00    +0.222 HD
ENDBRANCH  19  21
BRANCH  19  23
ATOM     23  O   UNL     1      37.155 -22.350 -11.446  0.00  0.00    -0.303 OA
ATOM     24  H   UNL     1      37.220 -21.903 -10.587  0.00  0.00    +0.222 HD
ENDBRANCH  19  23
ENDBRANCH  18  19
ENDBRANCH  17  18
ENDBRANCH   3  17
TORSDOF 7
ENDMDL
MODEL 2
REMARK VINA RESULT:      -8.3      2.271      3.832
REMARK  Name = 65063
REMARK  7 active torsions:
REMARK  status: ('A' for Active; 'I' for Inactive)
REMARK    1  A    between atoms: C_2  and  O_15
REMARK    2  A    between atoms: C_3  and  C_17
REMARK    3  A    between atoms: C_5  and  N_8
REMARK    4  A    between atoms: C_17  and  O_18
REMARK    5  A    between atoms: O_18  and  P_19
REMARK    6  A    between atoms: P_19  and  O_21
REMARK    7  A    between atoms: P_19  and  O_23
REMARK                            x       y       z     vdW  Elec       q    Type
REMARK                         _______ _______ _______ _____ _____    ______ ____
ROOT
ATOM      1  O   UNL     1      35.876 -22.921 -14.475  0.00  0.00    -0.335 OA
ATOM      2  C   UNL     1      35.965 -25.140 -13.645  0.00  0.00    +0.144 C 
ATOM      3  C   UNL     1      36.794 -23.902 -13.957  0.00  0.00    +0.174 C 
ATOM      4  C   UNL     1      34.836 -25.055 -14.646  0.00  0.00    +0.083 C 
ATOM      5  C   UNL     1      34.626 -23.556 -14.780  0.00  0.00    +0.202 C 
ENDROOT
BRANCH   5   8
ATOM      6  O   UNL     1      31.959 -23.670 -15.693  0.00  0.00    -0.252 OA
ATOM      7  O   UNL     1      33.125 -22.044 -19.845  0.00  0.00    -0.270 OA
ATOM      8  N   UNL     1      34.204 -23.168 -16.094  0.00  0.00    -0.219 N 
ATOM      9  N   UNL     1      32.542 -22.860 -17.761  0.00  0.00    -0.236 N 
ATOM     10  C   UNL     1      32.842 -23.265 -16.453  0.00  0.00    +0.315 C 
ATOM     11  C   UNL     1      35.139 -22.699 -17.008  0.00  0.00    +0.076 C 
ATOM     12  C   UNL     1      34.838 -22.317 -18.252  0.00  0.00    +0.074 C 
ATOM     13  C   UNL     1      33.435 -22.387 -18.708  0.00  0.00    +0.254 C 
ATOM     14  H   UNL     1      31.598 -22.918 -18.035  0.00  0.00    +0.159 HD
ENDBRANCH   5   8
BRANCH   2  15
ATOM     15  O   UNL     1      35.441 -25.054 -12.322  0.00  0.00    -0.382 OA
ATOM     16  H   UNL     1      34.914 -25.845 -12.131  0.00  0.00    +0.210 HD
ENDBRANCH   2  15
BRANCH   3  17
ATOM     17  C   UNL     1      37.860 -24.153 -15.017  0.00  0.00    +0.186 C 
BRANCH  17  18
ATOM     18  O   UNL     1      39.090 -24.437 -14.372  0.00  0.00    -0.271 OA
BRANCH  18  19
ATOM     19  P   UNL     1      39.815 -25.849 -14.684  0.00  0.00    +0.473 P 
ATOM     20  O   UNL     1      40.907 -26.226 -13.726  0.00  0.00    -0.227 OA
BRANCH  19  21
ATOM     21  O   UNL     1      40.267 -25.716 -16.231  0.00  0.00    -0.303 OA
ATOM     22  H   UNL     1      40.948 -26.378 -16.427  0.00  0.00    +0.222 HD
ENDBRANCH  19  21
BRANCH  19  23
ATOM     23  O   UNL     1      38.575 -26.885 -14.746  0.00  0.00    -0.303 OA
ATOM     24  H   UNL     1      37.864 -26.573 -14.164  0.00  0.00    +0.222 HD
ENDBRANCH  19  23
ENDBRANCH  18  19
ENDBRANCH  17  18
ENDBRANCH   3  17
TORSDOF 7
ENDMDL
MODEL 3
REMARK VINA RESULT:      -8.1      7.627     10.051
REMARK  Name = 65063
REMARK  7 active torsions:
REMARK  status: ('A' for Active; 'I' for Inactive)
REMARK    1  A    between atoms: C_2  and  O_15
REMARK    2  A    between atoms: C_3  and  C_17
REMARK    3  A    between atoms: C_5  and  N_8
REMARK    4  A    between atoms: C_17  and  O_18
REMARK    5  A    between atoms: O_18  and  P_19
REMARK    6  A    between atoms: P_19  and  O_21
REMARK    7  A    between atoms: P_19  and  O_23
REMARK                            x       y       z     vdW  Elec       q    Type
REMARK                         _______ _______ _______ _____ _____    ______ ____
ROOT
ATOM      1  O   UNL     1      35.275 -17.436 -20.708  0.00  0.00    -0.335 OA
ATOM      2  C   UNL     1      34.768 -16.880 -22.956  0.00  0.00    +0.144 C 
ATOM      3  C   UNL     1      34.746 -16.372 -21.521  0.00  0.00    +0.174 C 
ATOM      4  C   UNL     1      34.609 -18.374 -22.791  0.00  0.00    +0.083 C 
ATOM      5  C   UNL     1      35.337 -18.641 -21.484  0.00  0.00    +0.202 C 
ENDROOT
BRANCH   5   8
ATOM      6  O   UNL     1      36.829 -20.609 -20.121  0.00  0.00    -0.252 OA
ATOM      7  O   UNL     1      33.014 -22.733 -18.646  0.00  0.00    -0.270 OA
ATOM      8  N   UNL     1      34.760 -19.718 -20.736  0.00  0.00    -0.219 N 
ATOM      9  N   UNL     1      34.928 -21.666 -19.388  0.00  0.00    -0.236 N 
ATOM     10  C   UNL     1      35.597 -20.654 -20.089  0.00  0.00    +0.315 C 
ATOM     11  C   UNL     1      33.378 -19.838 -20.650  0.00  0.00    +0.076 C 
ATOM     12  C   UNL     1      32.754 -20.808 -19.978  0.00  0.00    +0.074 C 
ATOM     13  C   UNL     1      33.557 -21.828 -19.273  0.00  0.00    +0.254 C 
ATOM     14  H   UNL     1      35.491 -22.331 -18.928  0.00  0.00    +0.159 HD
ENDBRANCH   5   8
BRANCH   2  15
ATOM     15  O   UNL     1      36.031 -16.594 -23.553  0.00  0.00    -0.382 OA
ATOM     16  H   UNL     1      36.120 -15.636 -23.677  0.00  0.00    +0.210 HD
ENDBRANCH   2  15
BRANCH   3  17
ATOM     17  C   UNL     1      33.339 -16.059 -21.024  0.00  0.00    +0.186 C 
BRANCH  17  18
ATOM     18  O   UNL     1      32.658 -15.313 -22.019  0.00  0.00    -0.271 OA
BRANCH  18  19
ATOM     19  P   UNL     1      32.736 -13.698 -21.960  0.00  0.00    +0.473 P 
ATOM     20  O   UNL     1      32.507 -13.102 -20.602  0.00  0.00    -0.227 OA
BRANCH  19  21
ATOM     21  O   UNL     1      31.703 -13.220 -23.109  0.00  0.00    -0.303 OA
ATOM     22  H   UNL     1      31.659 -13.895 -23.804  0.00  0.00    +0.222 HD
ENDBRANCH  19  21
BRANCH  19  23
ATOM     23  O   UNL     1      34.184 -13.384 -22.607  0.00  0.00    -0.303 OA
ATOM     24  H   UNL     1      34.140 -13.500 -23.570  0.00  0.00    +0.222 HD
ENDBRANCH  19  23
ENDBRANCH  18  19
ENDBRANCH  17  18
ENDBRANCH   3  17
TORSDOF 7
ENDMDL
MODEL 4
REMARK VINA RESULT:      -8.1      2.379      4.177
REMARK  Name = 65063
REMARK  7 active torsions:
REMARK  status: ('A' for Active; 'I' for Inactive)
REMARK    1  A    between atoms: C_2  and  O_15
REMARK    2  A    between atoms: C_3  and  C_17
REMARK    3  A    between atoms: C_5  and  N_8
REMARK    4  A    between atoms: C_17  and  O_18
REMARK    5  A    between atoms: O_18  and  P_19
REMARK    6  A    between atoms: P_19  and  O_21
REMARK    7  A    between atoms: P_19  and  O_23
REMARK                            x       y       z     vdW  Elec       q    Type
REMARK                         _______ _______ _______ _____ _____    ______ ____
ROOT
ATOM      1  O   UNL     1      37.340 -23.629 -13.006  0.00  0.00    -0.335 OA
ATOM      2  C   UNL     1      36.251 -24.782 -11.243  0.00  0.00    +0.144 C 
ATOM      3  C   UNL     1      37.533 -24.699 -12.061  0.00  0.00    +0.174 C 
ATOM      4  C   UNL     1      35.197 -24.293 -12.210  0.00  0.00    +0.083 C 
ATOM      5  C   UNL     1      35.954 -23.259 -13.027  0.00  0.00    +0.202 C 
ENDROOT
BRANCH   5   8
ATOM      6  O   UNL     1      37.502 -22.258 -15.163  0.00  0.00    -0.252 OA
ATOM      7  O   UNL     1      34.119 -23.016 -18.201  0.00  0.00    -0.270 OA
ATOM      8  N   UNL     1      35.504 -23.184 -14.386  0.00  0.00    -0.219 N 
ATOM      9  N   UNL     1      35.816 -22.636 -16.675  0.00  0.00    -0.236 N 
ATOM     10  C   UNL     1      36.358 -22.664 -15.383  0.00  0.00    +0.315 C 
ATOM     11  C   UNL     1      34.228 -23.623 -14.715  0.00  0.00    +0.076 C 
ATOM     12  C   UNL     1      33.724 -23.591 -15.951  0.00  0.00    +0.074 C 
ATOM     13  C   UNL     1      34.552 -23.060 -17.054  0.00  0.00    +0.254 C 
ATOM     14  H   UNL     1      36.393 -22.277 -17.388  0.00  0.00    +0.159 HD
ENDBRANCH   5   8
BRANCH   2  15
ATOM     15  O   UNL     1      36.329 -23.896 -10.128  0.00  0.00    -0.382 OA
ATOM     16  H   UNL     1      36.893 -24.288  -9.444  0.00  0.00    +0.210 HD
ENDBRANCH   2  15
BRANCH   3  17
ATOM     17  C   UNL     1      37.817 -25.973 -12.848  0.00  0.00    +0.186 C 
BRANCH  17  18
ATOM     18  O   UNL     1      39.195 -26.006 -13.183  0.00  0.00    -0.271 OA
BRANCH  18  19
ATOM     19  P   UNL     1      39.617 -25.801 -14.732  0.00  0.00    +0.473 P 
ATOM     20  O   UNL     1      40.949 -26.380 -15.108  0.00  0.00    -0.227 OA
BRANCH  19  21
ATOM     21  O   UNL     1      39.464 -24.208 -14.964  0.00  0.00    -0.303 OA
ATOM     22  H   UNL     1      40.338 -23.790 -14.919  0.00  0.00    +0.222 HD
ENDBRANCH  19  21
BRANCH  19  23
ATOM     23  O   UNL     1      38.354 -26.417 -15.533  0.00  0.00    -0.303 OA
ATOM     24  H   UNL     1      37.863 -25.698 -15.964  0.00  0.00    +0.222 HD
ENDBRANCH  19  23
ENDBRANCH  18  19
ENDBRANCH  17  18
ENDBRANCH   3  17
TORSDOF 7
ENDMDL
MODEL 5
REMARK VINA RESULT:      -8.0      2.507      4.042
REMARK  Name = 65063
REMARK  7 active torsions:
REMARK  status: ('A' for Active; 'I' for Inactive)
REMARK    1  A    between atoms: C_2  and  O_15
REMARK    2  A    between atoms: C_3  and  C_17
REMARK    3  A    between atoms: C_5  and  N_8
REMARK    4  A    between atoms: C_17  and  O_18
REMARK    5  A    between atoms: O_18  and  P_19
REMARK    6  A    between atoms: P_19  and  O_21
REMARK    7  A    between atoms: P_19  and  O_23
REMARK                            x       y       z     vdW  Elec       q    Type
REMARK                         _______ _______ _______ _____ _____    ______ ____
ROOT
ATOM      1  O   UNL     1      36.481 -22.956 -13.553  0.00  0.00    -0.335 OA
ATOM      2  C   UNL     1      36.933 -24.940 -12.338  0.00  0.00    +0.144 C 
ATOM      3  C   UNL     1      37.556 -23.841 -13.185  0.00  0.00    +0.174 C 
ATOM      4  C   UNL     1      35.522 -25.025 -12.873  0.00  0.00    +0.083 C 
ATOM      5  C   UNL     1      35.226 -23.584 -13.253  0.00  0.00    +0.202 C 
ENDROOT
BRANCH   5   8
ATOM      6  O   UNL     1      32.413 -23.742 -13.121  0.00  0.00    -0.252 OA
ATOM      7  O   UNL     1      31.990 -23.152 -17.673  0.00  0.00    -0.270 OA
ATOM      8  N   UNL     1      34.357 -23.473 -14.387  0.00  0.00    -0.219 N 
ATOM      9  N   UNL     1      32.204 -23.448 -15.388  0.00  0.00    -0.236 N 
ATOM     10  C   UNL     1      32.958 -23.568 -14.213  0.00  0.00    +0.315 C 
ATOM     11  C   UNL     1      34.894 -23.275 -15.652  0.00  0.00    +0.076 C 
ATOM     12  C   UNL     1      34.163 -23.162 -16.763  0.00  0.00    +0.074 C 
ATOM     13  C   UNL     1      32.691 -23.251 -16.670  0.00  0.00    +0.254 C 
ATOM     14  H   UNL     1      31.226 -23.511 -15.293  0.00  0.00    +0.159 HD
ENDBRANCH   5   8
BRANCH   2  15
ATOM     15  O   UNL     1      36.905 -24.542 -10.969  0.00  0.00    -0.382 OA
ATOM     16  H   UNL     1      36.092 -24.042 -10.795  0.00  0.00    +0.210 HD
ENDBRANCH   2  15
BRANCH   3  17
ATOM     17  C   UNL     1      38.189 -24.367 -14.468  0.00  0.00    +0.186 C 
BRANCH  17  18
ATOM     18  O   UNL     1      39.557 -24.650 -14.221  0.00  0.00    -0.271 OA
BRANCH  18  19
ATOM     19  P   UNL     1      40.129 -26.105 -14.639  0.00  0.00    +0.473 P 
ATOM     20  O   UNL     1      41.228 -26.629 -13.762  0.00  0.00    -0.227 OA
BRANCH  19  21
ATOM     21  O   UNL     1      40.514 -25.932 -16.201  0.00  0.00    -0.303 OA
ATOM     22  H   UNL     1      41.333 -25.419 -16.277  0.00  0.00    +0.222 HD
ENDBRANCH  19  21
BRANCH  19  23
ATOM     23  O   UNL     1      38.796 -27.018 -14.683  0.00  0.00    -0.303 OA
ATOM     24  H   UNL     1      38.686 -27.388 -15.573  0.00  0.00    +0.222 HD
ENDBRANCH  19  23
ENDBRANCH  18  19
ENDBRANCH  17  18
ENDBRANCH   3  17
TORSDOF 7
ENDMDL
MODEL 6
REMARK VINA RESULT:      -8.0      3.204      6.584
REMARK  Name = 65063
REMARK  7 active torsions:
REMARK  status: ('A' for Active; 'I' for Inactive)
REMARK    1  A    between atoms: C_2  and  O_15
REMARK    2  A    between atoms: C_3  and  C_17
REMARK    3  A    between atoms: C_5  and  N_8
REMARK    4  A    between atoms: C_17  and  O_18
REMARK    5  A    between atoms: O_18  and  P_19
REMARK    6  A    between atoms: P_19  and  O_21
REMARK    7  A    between atoms: P_19  and  O_23
REMARK                            x       y       z     vdW  Elec       q    Type
REMARK                         _______ _______ _______ _____ _____    ______ ____
ROOT
ATOM      1  O   UNL     1      31.844 -25.181 -14.924  0.00  0.00    -0.335 OA
ATOM      2  C   UNL     1      30.286 -23.879 -13.700  0.00  0.00    +0.144 C 
ATOM      3  C   UNL     1      30.442 -25.093 -14.607  0.00  0.00    +0.174 C 
ATOM      4  C   UNL     1      31.411 -22.974 -14.144  0.00  0.00    +0.083 C 
ATOM      5  C   UNL     1      32.497 -23.964 -14.533  0.00  0.00    +0.202 C 
ENDROOT
BRANCH   5   8
ATOM      6  O   UNL     1      35.251 -23.396 -14.309  0.00  0.00    -0.252 OA
ATOM      7  O   UNL     1      35.540 -22.173 -18.743  0.00  0.00    -0.270 OA
ATOM      8  N   UNL     1      33.316 -23.498 -15.613  0.00  0.00    -0.219 N 
ATOM      9  N   UNL     1      35.393 -22.787 -16.517  0.00  0.00    -0.236 N 
ATOM     10  C   UNL     1      34.687 -23.241 -15.395  0.00  0.00    +0.315 C 
ATOM     11  C   UNL     1      32.756 -23.299 -16.868  0.00  0.00    +0.076 C 
ATOM     12  C   UNL     1      33.441 -22.866 -17.929  0.00  0.00    +0.074 C 
ATOM     13  C   UNL     1      34.882 -22.572 -17.787  0.00  0.00    +0.254 C 
ATOM     14  H   UNL     1      36.351 -22.601 -16.391  0.00  0.00    +0.159 HD
ENDBRANCH   5   8
BRANCH   2  15
ATOM     15  O   UNL     1      30.483 -24.261 -12.340  0.00  0.00    -0.382 OA
ATOM     16  H   UNL     1      30.059 -25.119 -12.181  0.00  0.00    +0.210 HD
ENDBRANCH   2  15
BRANCH   3  17
ATOM     17  C   UNL     1      29.674 -24.958 -15.916  0.00  0.00    +0.186 C 
BRANCH  17  18
ATOM     18  O   UNL     1      28.514 -24.174 -15.688  0.00  0.00    -0.271 OA
BRANCH  18  19
ATOM     19  P   UNL     1      28.239 -22.906 -16.655  0.00  0.00    +0.473 P 
ATOM     20  O   UNL     1      29.470 -22.176 -17.108  0.00  0.00    -0.227 OA
BRANCH  19  21
ATOM     21  O   UNL     1      27.172 -22.016 -15.828  0.00  0.00    -0.303 OA
ATOM     22  H   UNL     1      27.636 -21.297 -15.371  0.00  0.00    +0.222 HD
ENDBRANCH  19  21
BRANCH  19  23
ATOM     23  O   UNL     1      27.349 -23.546 -17.844  0.00  0.00    -0.303 OA
ATOM     24  H   UNL     1      27.472 -23.027 -18.654  0.00  0.00    +0.222 HD
ENDBRANCH  19  23
ENDBRANCH  18  19
ENDBRANCH  17  18
ENDBRANCH   3  17
TORSDOF 7
ENDMDL
MODEL 7
REMARK VINA RESULT:      -7.8      2.752      4.292
REMARK  Name = 65063
REMARK  7 active torsions:
REMARK  status: ('A' for Active; 'I' for Inactive)
REMARK    1  A    between atoms: C_2  and  O_15
REMARK    2  A    between atoms: C_3  and  C_17
REMARK    3  A    between atoms: C_5  and  N_8
REMARK    4  A    between atoms: C_17  and  O_18
REMARK    5  A    between atoms: O_18  and  P_19
REMARK    6  A    between atoms: P_19  and  O_21
REMARK    7  A    between atoms: P_19  and  O_23
REMARK                            x       y       z     vdW  Elec       q    Type
REMARK                         _______ _______ _______ _____ _____    ______ ____
ROOT
ATOM      1  O   UNL     1      36.603 -23.402 -14.688  0.00  0.00    -0.335 OA
ATOM      2  C   UNL     1      35.048 -25.038 -13.963  0.00  0.00    +0.144 C 
ATOM      3  C   UNL     1      36.529 -24.711 -14.093  0.00  0.00    +0.174 C 
ATOM      4  C   UNL     1      34.428 -24.273 -15.109  0.00  0.00    +0.083 C 
ATOM      5  C   UNL     1      35.311 -23.040 -15.198  0.00  0.00    +0.202 C 
ENDROOT
BRANCH   5   8
ATOM      6  O   UNL     1      37.532 -21.572 -16.132  0.00  0.00    -0.252 OA
ATOM      7  O   UNL     1      35.735 -21.206 -20.361  0.00  0.00    -0.270 OA
ATOM      8  N   UNL     1      35.450 -22.550 -16.538  0.00  0.00    -0.219 N 
ATOM      9  N   UNL     1      36.635 -21.390 -18.238  0.00  0.00    -0.236 N 
ATOM     10  C   UNL     1      36.604 -21.822 -16.905  0.00  0.00    +0.315 C 
ATOM     11  C   UNL     1      34.449 -22.792 -17.469  0.00  0.00    +0.076 C 
ATOM     12  C   UNL     1      34.492 -22.374 -18.736  0.00  0.00    +0.074 C 
ATOM     13  C   UNL     1      35.664 -21.605 -19.202  0.00  0.00    +0.254 C 
ATOM     14  H   UNL     1      37.430 -20.881 -18.518  0.00  0.00    +0.159 HD
ENDBRANCH   5   8
BRANCH   2  15
ATOM     15  O   UNL     1      34.547 -24.539 -12.725  0.00  0.00    -0.382 OA
ATOM     16  H   UNL     1      33.739 -24.027 -12.886  0.00  0.00    +0.210 HD
ENDBRANCH   2  15
BRANCH   3  17
ATOM     17  C   UNL     1      37.274 -25.681 -15.002  0.00  0.00    +0.186 C 
BRANCH  17  18
ATOM     18  O   UNL     1      38.533 -25.977 -14.422  0.00  0.00    -0.271 OA
BRANCH  18  19
ATOM     19  P   UNL     1      39.821 -25.119 -14.896  0.00  0.00    +0.473 P 
ATOM     20  O   UNL     1      40.752 -24.712 -13.793  0.00  0.00    -0.227 OA
BRANCH  19  21
ATOM     21  O   UNL     1      39.179 -23.901 -15.744  0.00  0.00    -0.303 OA
ATOM     22  H   UNL     1      39.687 -23.091 -15.582  0.00  0.00    +0.222 HD
ENDBRANCH  19  21
BRANCH  19  23
ATOM     23  O   UNL     1      40.480 -26.059 -16.035  0.00  0.00    -0.303 OA
ATOM     24  H   UNL     1      39.844 -26.187 -16.757  0.00  0.00    +0.222 HD
ENDBRANCH  19  23
ENDBRANCH  18  19
ENDBRANCH  17  18
ENDBRANCH   3  17
TORSDOF 7
ENDMDL
MODEL 8
REMARK VINA RESULT:      -7.8      3.205      6.634
REMARK  Name = 65063
REMARK  7 active torsions:
REMARK  status: ('A' for Active; 'I' for Inactive)
REMARK    1  A    between atoms: C_2  and  O_15
REMARK    2  A    between atoms: C_3  and  C_17
REMARK    3  A    between atoms: C_5  and  N_8
REMARK    4  A    between atoms: C_17  and  O_18
REMARK    5  A    between atoms: O_18  and  P_19
REMARK    6  A    between atoms: P_19  and  O_21
REMARK    7  A    between atoms: P_19  and  O_23
REMARK                            x       y       z     vdW  Elec       q    Type
REMARK                         _______ _______ _______ _____ _____    ______ ____
ROOT
ATOM      1  O   UNL     1      34.879 -25.192 -15.190  0.00  0.00    -0.335 OA
ATOM      2  C   UNL     1      33.524 -23.913 -13.725  0.00  0.00    +0.144 C 
ATOM      3  C   UNL     1      33.836 -24.199 -15.187  0.00  0.00    +0.174 C 
ATOM      4  C   UNL     1      34.842 -24.182 -13.036  0.00  0.00    +0.083 C 
ATOM      5  C   UNL     1      35.426 -25.310 -13.869  0.00  0.00    +0.202 C 
ENDROOT
BRANCH   5   8
ATOM      6  O   UNL     1      37.150 -26.553 -12.015  0.00  0.00    -0.252 OA
ATOM      7  O   UNL     1      40.902 -25.072 -14.245  0.00  0.00    -0.270 OA
ATOM      8  N   UNL     1      36.856 -25.267 -13.942  0.00  0.00    -0.219 N 
ATOM      9  N   UNL     1      39.018 -25.815 -13.126  0.00  0.00    -0.236 N 
ATOM     10  C   UNL     1      37.631 -25.923 -12.959  0.00  0.00    +0.315 C 
ATOM     11  C   UNL     1      37.475 -24.578 -14.977  0.00  0.00    +0.076 C 
ATOM     12  C   UNL     1      38.798 -24.483 -15.124  0.00  0.00    +0.074 C 
ATOM     13  C   UNL     1      39.682 -25.140 -14.139  0.00  0.00    +0.254 C 
ATOM     14  H   UNL     1      39.580 -26.264 -12.454  0.00  0.00    +0.159 HD
ENDBRANCH   5   8
BRANCH   2  15
ATOM     15  O   UNL     1      32.538 -24.828 -13.251  0.00  0.00    -0.382 OA
ATOM     16  H   UNL     1      32.885 -25.307 -12.482  0.00  0.00    +0.210 HD
ENDBRANCH   2  15
BRANCH   3  17
ATOM     17  C   UNL     1      34.353 -22.975 -15.933  0.00  0.00    +0.186 C 
BRANCH  17  18
ATOM     18  O   UNL     1      34.772 -23.371 -17.228  0.00  0.00    -0.271 OA
BRANCH  18  19
ATOM     19  P   UNL     1      34.003 -22.752 -18.511  0.00  0.00    +0.473 P 
ATOM     20  O   UNL     1      34.614 -21.502 -19.073  0.00  0.00    -0.227 OA
BRANCH  19  21
ATOM     21  O   UNL     1      32.473 -22.608 -18.009  0.00  0.00    -0.303 OA
ATOM     22  H   UNL     1      32.348 -21.740 -17.595  0.00  0.00    +0.222 HD
ENDBRANCH  19  21
BRANCH  19  23
ATOM     23  O   UNL     1      33.944 -24.002 -19.534  0.00  0.00    -0.303 OA
ATOM     24  H   UNL     1      34.496 -24.724 -19.194  0.00  0.00    +0.222 HD
ENDBRANCH  19  23
ENDBRANCH  18  19
ENDBRANCH  17  18
ENDBRANCH   3  17
TORSDOF 7
ENDMDL
MODEL 9
REMARK VINA RESULT:      -7.7      1.166      1.560
REMARK  Name = 65063
REMARK  7 active torsions:
REMARK  status: ('A' for Active; 'I' for Inactive)
REMARK    1  A    between atoms: C_2  and  O_15
REMARK    2  A    between atoms: C_3  and  C_17
REMARK    3  A    between atoms: C_5  and  N_8
REMARK    4  A    between atoms: C_17  and  O_18
REMARK    5  A    between atoms: O_18  and  P_19
REMARK    6  A    between atoms: P_19  and  O_21
REMARK    7  A    between atoms: P_19  and  O_23
REMARK                            x       y       z     vdW  Elec       q    Type
REMARK                         _______ _______ _______ _____ _____    ______ ____
ROOT
ATOM      1  O   UNL     1      35.231 -24.326 -15.302  0.00  0.00    -0.335 OA
ATOM      2  C   UNL     1      36.866 -22.652 -15.680  0.00  0.00    +0.144 C 
ATOM      3  C   UNL     1      36.426 -23.758 -14.732  0.00  0.00    +0.174 C 
ATOM      4  C   UNL     1      35.564 -22.186 -16.289  0.00  0.00    +0.083 C 
ATOM      5  C   UNL     1      34.749 -23.468 -16.346  0.00  0.00    +0.202 C 
ENDROOT
BRANCH   5   8
ATOM      6  O   UNL     1      32.953 -22.878 -18.440  0.00  0.00    -0.252 OA
ATOM      7  O   UNL     1      29.380 -22.623 -15.539  0.00  0.00    -0.270 OA
ATOM      8  N   UNL     1      33.345 -23.244 -16.167  0.00  0.00    -0.219 N 
ATOM      9  N   UNL     1      31.175 -22.751 -16.994  0.00  0.00    -0.236 N 
ATOM     10  C   UNL     1      32.530 -22.953 -17.284  0.00  0.00    +0.315 C 
ATOM     11  C   UNL     1      32.792 -23.313 -14.895  0.00  0.00    +0.076 C 
ATOM     12  C   UNL     1      31.497 -23.117 -14.633  0.00  0.00    +0.074 C 
ATOM     13  C   UNL     1      30.575 -22.808 -15.746  0.00  0.00    +0.254 C 
ATOM     14  H   UNL     1      30.586 -22.547 -17.756  0.00  0.00    +0.159 HD
ENDBRANCH   5   8
BRANCH   2  15
ATOM     15  O   UNL     1      37.707 -23.190 -16.698  0.00  0.00    -0.382 OA
ATOM     16  H   UNL     1      38.146 -23.988 -16.366  0.00  0.00    +0.210 HD
ENDBRANCH   2  15
BRANCH   3  17
ATOM     17  C   UNL     1      36.083 -23.245 -13.339  0.00  0.00    +0.186 C 
BRANCH  17  18
ATOM     18  O   UNL     1      35.391 -24.262 -12.633  0.00  0.00    -0.271 OA
BRANCH  18  19
ATOM     19  P   UNL     1      36.107 -24.927 -11.343  0.00  0.00    +0.473 P 
ATOM     20  O   UNL     1      35.235 -25.052 -10.129  0.00  0.00    -0.227 OA
BRANCH  19  21
ATOM     21  O   UNL     1      37.445 -24.040 -11.146  0.00  0.00    -0.303 OA
ATOM     22  H   UNL     1      37.886 -24.300 -10.323  0.00  0.00    +0.222 HD
ENDBRANCH  19  21
BRANCH  19  23
ATOM     23  O   UNL     1      36.670 -26.326 -11.926  0.00  0.00    -0.303 OA
ATOM     24  H   UNL     1      36.958 -26.201 -12.844  0.00  0.00    +0.222 HD
ENDBRANCH  19  23
ENDBRANCH  18  19
ENDBRANCH  17  18
ENDBRANCH   3  17
TORSDOF 7
ENDMDL
