MODEL 1
REMARK VINA RESULT:      -8.7      0.000      0.000
REMARK  Name = 6323220
REMARK  0 active torsions:
REMARK  status: ('A' for Active; 'I' for Inactive)
REMARK                            x       y       z     vdW  Elec       q    Type
REMARK                         _______ _______ _______ _____ _____    ______ ____
ROOT
ATOM      1  O   UNL     1      33.385 -14.509 -25.499  0.00  0.00    -0.432 OA
ATOM      2  O   UNL     1      34.025 -16.635 -25.966  0.00  0.00    -0.226 OA
ATOM      3  O   UNL     1      34.517 -18.565 -24.470  0.00  0.00    -0.208 OA
ATOM      4  N   UNL     1      34.161 -15.742 -23.775  0.00  0.00    -0.209 N 
ATOM      5  N   UNL     1      34.412 -15.231 -21.092  0.00  0.00    -0.318 N 
ATOM      6  N   UNL     1      35.335 -17.431 -20.783  0.00  0.00    -0.263 N 
ATOM      7  N   UNL     1      35.606 -18.987 -22.521  0.00  0.00    -0.301 NA
ATOM      8  N   UNL     1      36.412 -19.415 -20.353  0.00  0.00    -0.320 N 
ATOM      9  C   UNL     1      34.062 -14.378 -23.300  0.00  0.00    +0.147 C 
ATOM     10  C   UNL     1      33.624 -14.281 -21.849  0.00  0.00    +0.112 C 
ATOM     11  C   UNL     1      33.126 -13.759 -24.303  0.00  0.00    +0.232 C 
ATOM     12  C   UNL     1      34.625 -16.740 -22.923  0.00  0.00    +0.180 C 
ATOM     13  C   UNL     1      34.790 -16.465 -21.600  0.00  0.00    +0.127 C 
ATOM     14  C   UNL     1      33.882 -15.747 -25.139  0.00  0.00    +0.409 C 
ATOM     15  C   UNL     1      34.908 -18.156 -23.384  0.00  0.00    +0.224 C 
ATOM     16  C   UNL     1      35.772 -18.630 -21.277  0.00  0.00    +0.248 C 
ATOM     17  H   UNL     1      34.693 -14.990 -20.179  0.00  0.00    +0.148 HD
ATOM     18  H   UNL     1      35.410 -17.254 -19.818  0.00  0.00    +0.157 HD
ATOM     19  H   UNL     1      36.512 -19.100 -19.425  0.00  0.00    +0.146 HD
ATOM     20  H   UNL     1      36.771 -20.292 -20.616  0.00  0.00    +0.146 HD
ENDROOT
TORSDOF 0
ENDMDL
MODEL 2
REMARK VINA RESULT:      -8.5      2.373      5.222
REMARK  Name = 6323220
REMARK  0 active torsions:
REMARK  status: ('A' for Active; 'I' for Inactive)
REMARK                            x       y       z     vdW  Elec       q    Type
REMARK                         _______ _______ _______ _____ _____    ______ ____
ROOT
ATOM      1  O   UNL     1      35.635 -17.902 -20.613  0.00  0.00    -0.432 OA
ATOM      2  O   UNL     1      34.741 -15.825 -20.425  0.00  0.00    -0.226 OA
ATOM      3  O   UNL     1      33.343 -14.494 -22.000  0.00  0.00    -0.208 OA
ATOM      4  N   UNL     1      34.843 -16.958 -22.505  0.00  0.00    -0.209 N 
ATOM      5  N   UNL     1      34.627 -17.868 -25.084  0.00  0.00    -0.318 N 
ATOM      6  N   UNL     1      33.661 -15.759 -25.721  0.00  0.00    -0.263 N 
ATOM      7  N   UNL     1      33.256 -14.002 -24.216  0.00  0.00    -0.301 NA
ATOM      8  N   UNL     1      32.913 -13.742 -26.529  0.00  0.00    -0.320 N 
ATOM      9  C   UNL     1      35.580 -18.139 -22.905  0.00  0.00    +0.147 C 
ATOM     10  C   UNL     1      34.952 -18.863 -24.084  0.00  0.00    +0.112 C 
ATOM     11  C   UNL     1      35.645 -18.923 -21.622  0.00  0.00    +0.232 C 
ATOM     12  C   UNL     1      34.241 -16.157 -23.471  0.00  0.00    +0.180 C 
ATOM     13  C   UNL     1      34.177 -16.596 -24.758  0.00  0.00    +0.127 C 
ATOM     14  C   UNL     1      35.025 -16.777 -21.136  0.00  0.00    +0.409 C 
ATOM     15  C   UNL     1      33.589 -14.826 -23.153  0.00  0.00    +0.224 C 
ATOM     16  C   UNL     1      33.272 -14.479 -25.431  0.00  0.00    +0.248 C 
ATOM     17  H   UNL     1      34.732 -18.102 -26.035  0.00  0.00    +0.148 HD
ATOM     18  H   UNL     1      33.568 -16.091 -26.643  0.00  0.00    +0.157 HD
ATOM     19  H   UNL     1      32.942 -14.149 -27.426  0.00  0.00    +0.146 HD
ATOM     20  H   UNL     1      32.628 -12.806 -26.422  0.00  0.00    +0.146 HD
ENDROOT
TORSDOF 0
ENDMDL
MODEL 3
REMARK VINA RESULT:      -8.4      1.856      4.515
REMARK  Name = 6323220
REMARK  0 active torsions:
REMARK  status: ('A' for Active; 'I' for Inactive)
REMARK                            x       y       z     vdW  Elec       q    Type
REMARK                         _______ _______ _______ _____ _____    ______ ____
ROOT
ATOM      1  O   UNL     1      35.384 -18.534 -21.767  0.00  0.00    -0.432 OA
ATOM      2  O   UNL     1      35.220 -18.929 -23.996  0.00  0.00    -0.226 OA
ATOM      3  O   UNL     1      34.784 -17.390 -25.905  0.00  0.00    -0.208 OA
ATOM      4  N   UNL     1      34.511 -16.883 -23.034  0.00  0.00    -0.209 N 
ATOM      5  N   UNL     1      33.660 -14.342 -22.443  0.00  0.00    -0.318 N 
ATOM      6  N   UNL     1      33.085 -14.022 -24.757  0.00  0.00    -0.263 N 
ATOM      7  N   UNL     1      33.426 -15.644 -26.422  0.00  0.00    -0.301 NA
ATOM      8  N   UNL     1      32.300 -13.630 -26.881  0.00  0.00    -0.320 N 
ATOM      9  C   UNL     1      34.281 -16.514 -21.652  0.00  0.00    +0.147 C 
ATOM     10  C   UNL     1      34.406 -15.020 -21.404  0.00  0.00    +0.112 C 
ATOM     11  C   UNL     1      35.274 -17.378 -20.924  0.00  0.00    +0.232 C 
ATOM     12  C   UNL     1      34.068 -16.048 -24.056  0.00  0.00    +0.180 C 
ATOM     13  C   UNL     1      33.605 -14.805 -23.750  0.00  0.00    +0.127 C 
ATOM     14  C   UNL     1      35.046 -18.168 -23.056  0.00  0.00    +0.409 C 
ATOM     15  C   UNL     1      34.125 -16.432 -25.521  0.00  0.00    +0.224 C 
ATOM     16  C   UNL     1      32.963 -14.485 -26.039  0.00  0.00    +0.248 C 
ATOM     17  H   UNL     1      33.171 -13.519 -22.212  0.00  0.00    +0.148 HD
ATOM     18  H   UNL     1      32.795 -13.105 -24.549  0.00  0.00    +0.157 HD
ATOM     19  H   UNL     1      31.970 -12.766 -26.543  0.00  0.00    +0.146 HD
ATOM     20  H   UNL     1      32.154 -13.879 -27.821  0.00  0.00    +0.146 HD
ENDROOT
TORSDOF 0
ENDMDL
MODEL 4
REMARK VINA RESULT:      -8.2      1.924      2.879
REMARK  Name = 6323220
REMARK  0 active torsions:
REMARK  status: ('A' for Active; 'I' for Inactive)
REMARK                            x       y       z     vdW  Elec       q    Type
REMARK                         _______ _______ _______ _____ _____    ______ ____
ROOT
ATOM      1  O   UNL     1      32.692 -13.484 -24.041  0.00  0.00    -0.432 OA
ATOM      2  O   UNL     1      33.088 -13.611 -21.810  0.00  0.00    -0.226 OA
ATOM      3  O   UNL     1      34.653 -15.042 -20.503  0.00  0.00    -0.208 OA
ATOM      4  N   UNL     1      33.863 -15.271 -23.313  0.00  0.00    -0.209 N 
ATOM      5  N   UNL     1      35.055 -17.366 -24.623  0.00  0.00    -0.318 N 
ATOM      6  N   UNL     1      35.778 -18.248 -22.504  0.00  0.00    -0.263 N 
ATOM      7  N   UNL     1      35.355 -17.202 -20.444  0.00  0.00    -0.301 NA
ATOM      8  N   UNL     1      36.368 -19.322 -20.560  0.00  0.00    -0.320 N 
ATOM      9  C   UNL     1      33.520 -15.532 -24.696  0.00  0.00    +0.147 C 
ATOM     10  C   UNL     1      34.612 -16.267 -25.454  0.00  0.00    +0.112 C 
ATOM     11  C   UNL     1      33.189 -14.155 -25.207  0.00  0.00    +0.232 C 
ATOM     12  C   UNL     1      34.589 -16.213 -22.591  0.00  0.00    +0.180 C 
ATOM     13  C   UNL     1      35.139 -17.275 -23.241  0.00  0.00    +0.127 C 
ATOM     14  C   UNL     1      33.223 -14.098 -22.922  0.00  0.00    +0.409 C 
ATOM     15  C   UNL     1      34.853 -16.091 -21.103  0.00  0.00    +0.224 C 
ATOM     16  C   UNL     1      35.816 -18.208 -21.137  0.00  0.00    +0.248 C 
ATOM     17  H   UNL     1      35.305 -18.215 -25.056  0.00  0.00    +0.148 HD
ATOM     18  H   UNL     1      36.219 -18.991 -22.975  0.00  0.00    +0.157 HD
ATOM     19  H   UNL     1      36.702 -20.055 -21.128  0.00  0.00    +0.146 HD
ATOM     20  H   UNL     1      36.430 -19.390 -19.581  0.00  0.00    +0.146 HD
ENDROOT
TORSDOF 0
ENDMDL
MODEL 5
REMARK VINA RESULT:      -8.1     10.914     12.860
REMARK  Name = 6323220
REMARK  0 active torsions:
REMARK  status: ('A' for Active; 'I' for Inactive)
REMARK                            x       y       z     vdW  Elec       q    Type
REMARK                         _______ _______ _______ _____ _____    ______ ____
ROOT
ATOM      1  O   UNL     1      33.469 -23.845 -12.956  0.00  0.00    -0.432 OA
ATOM      2  O   UNL     1      34.795 -24.967 -11.494  0.00  0.00    -0.226 OA
ATOM      3  O   UNL     1      37.250 -25.384 -11.497  0.00  0.00    -0.208 OA
ATOM      4  N   UNL     1      35.559 -24.343 -13.649  0.00  0.00    -0.209 N 
ATOM      5  N   UNL     1      36.938 -23.765 -15.949  0.00  0.00    -0.318 N 
ATOM      6  N   UNL     1      38.838 -24.958 -15.081  0.00  0.00    -0.263 N 
ATOM      7  N   UNL     1      38.887 -25.968 -12.961  0.00  0.00    -0.301 NA
ATOM      8  N   UNL     1      40.660 -26.225 -14.485  0.00  0.00    -0.320 N 
ATOM      9  C   UNL     1      34.835 -23.871 -14.812  0.00  0.00    +0.147 C 
ATOM     10  C   UNL     1      35.695 -23.049 -15.757  0.00  0.00    +0.112 C 
ATOM     11  C   UNL     1      33.675 -23.142 -14.190  0.00  0.00    +0.232 C 
ATOM     12  C   UNL     1      36.888 -24.736 -13.774  0.00  0.00    +0.180 C 
ATOM     13  C   UNL     1      37.553 -24.486 -14.935  0.00  0.00    +0.127 C 
ATOM     14  C   UNL     1      34.659 -24.447 -12.592  0.00  0.00    +0.409 C 
ATOM     15  C   UNL     1      37.667 -25.387 -12.649  0.00  0.00    +0.224 C 
ATOM     16  C   UNL     1      39.438 -25.725 -14.119  0.00  0.00    +0.248 C 
ATOM     17  H   UNL     1      37.365 -23.741 -16.837  0.00  0.00    +0.148 HD
ATOM     18  H   UNL     1      39.339 -24.737 -15.899  0.00  0.00    +0.157 HD
ATOM     19  H   UNL     1      41.033 -26.013 -15.371  0.00  0.00    +0.146 HD
ATOM     20  H   UNL     1      41.164 -26.797 -13.863  0.00  0.00    +0.146 HD
ENDROOT
TORSDOF 0
ENDMDL
MODEL 6
REMARK VINA RESULT:      -8.0      1.689      4.357
REMARK  Name = 6323220
REMARK  0 active torsions:
REMARK  status: ('A' for Active; 'I' for Inactive)
REMARK                            x       y       z     vdW  Elec       q    Type
REMARK                         _______ _______ _______ _____ _____    ______ ____
ROOT
ATOM      1  O   UNL     1      35.344 -18.217 -24.454  0.00  0.00    -0.432 OA
ATOM      2  O   UNL     1      34.397 -16.620 -25.759  0.00  0.00    -0.226 OA
ATOM      3  O   UNL     1      33.559 -14.339 -25.209  0.00  0.00    -0.208 OA
ATOM      4  N   UNL     1      34.325 -16.505 -23.393  0.00  0.00    -0.209 N 
ATOM      5  N   UNL     1      34.064 -15.859 -20.740  0.00  0.00    -0.318 N 
ATOM      6  N   UNL     1      32.800 -13.910 -21.364  0.00  0.00    -0.263 N 
ATOM      7  N   UNL     1      32.350 -13.304 -23.588  0.00  0.00    -0.301 NA
ATOM      8  N   UNL     1      31.413 -12.125 -21.781  0.00  0.00    -0.320 N 
ATOM      9  C   UNL     1      34.619 -17.505 -22.387  0.00  0.00    +0.147 C 
ATOM     10  C   UNL     1      35.016 -16.905 -21.048  0.00  0.00    +0.112 C 
ATOM     11  C   UNL     1      35.674 -18.337 -23.063  0.00  0.00    +0.232 C 
ATOM     12  C   UNL     1      33.682 -15.326 -23.030  0.00  0.00    +0.180 C 
ATOM     13  C   UNL     1      33.516 -15.033 -21.711  0.00  0.00    +0.127 C 
ATOM     14  C   UNL     1      34.647 -17.038 -24.638  0.00  0.00    +0.409 C 
ATOM     15  C   UNL     1      33.199 -14.303 -24.039  0.00  0.00    +0.224 C 
ATOM     16  C   UNL     1      32.199 -13.119 -22.305  0.00  0.00    +0.248 C 
ATOM     17  H   UNL     1      33.793 -15.729 -19.802  0.00  0.00    +0.148 HD
ATOM     18  H   UNL     1      32.720 -13.668 -20.413  0.00  0.00    +0.157 HD
ATOM     19  H   UNL     1      31.331 -12.027 -20.804  0.00  0.00    +0.146 HD
ATOM     20  H   UNL     1      30.931 -11.511 -22.379  0.00  0.00    +0.146 HD
ENDROOT
TORSDOF 0
ENDMDL
MODEL 7
REMARK VINA RESULT:      -8.0      9.507     10.833
REMARK  Name = 6323220
REMARK  0 active torsions:
REMARK  status: ('A' for Active; 'I' for Inactive)
REMARK                            x       y       z     vdW  Elec       q    Type
REMARK                         _______ _______ _______ _____ _____    ______ ____
ROOT
ATOM      1  O   UNL     1      30.181 -22.835 -16.761  0.00  0.00    -0.432 OA
ATOM      2  O   UNL     1      32.108 -22.280 -17.824  0.00  0.00    -0.226 OA
ATOM      3  O   UNL     1      34.443 -23.092 -17.516  0.00  0.00    -0.208 OA
ATOM      4  N   UNL     1      32.109 -23.506 -15.796  0.00  0.00    -0.209 N 
ATOM      5  N   UNL     1      32.642 -25.008 -13.563  0.00  0.00    -0.318 N 
ATOM      6  N   UNL     1      34.997 -24.753 -13.983  0.00  0.00    -0.263 N 
ATOM      7  N   UNL     1      35.875 -23.586 -15.823  0.00  0.00    -0.301 NA
ATOM      8  N   UNL     1      37.268 -24.437 -14.130  0.00  0.00    -0.320 N 
ATOM      9  C   UNL     1      31.055 -23.742 -14.831  0.00  0.00    +0.147 C 
ATOM     10  C   UNL     1      31.266 -25.006 -14.013  0.00  0.00    +0.112 C 
ATOM     11  C   UNL     1      29.823 -23.727 -15.695  0.00  0.00    +0.232 C 
ATOM     12  C   UNL     1      33.426 -23.820 -15.473  0.00  0.00    +0.180 C 
ATOM     13  C   UNL     1      33.686 -24.527 -14.339  0.00  0.00    +0.127 C 
ATOM     14  C   UNL     1      31.559 -22.829 -16.881  0.00  0.00    +0.409 C 
ATOM     15  C   UNL     1      34.602 -23.460 -16.358  0.00  0.00    +0.224 C 
ATOM     16  C   UNL     1      36.039 -24.232 -14.700  0.00  0.00    +0.248 C 
ATOM     17  H   UNL     1      32.845 -25.365 -12.667  0.00  0.00    +0.148 HD
ATOM     18  H   UNL     1      35.188 -25.305 -13.191  0.00  0.00    +0.157 HD
ATOM     19  H   UNL     1      37.340 -24.932 -13.281  0.00  0.00    +0.146 HD
ATOM     20  H   UNL     1      38.079 -24.091 -14.567  0.00  0.00    +0.146 HD
ENDROOT
TORSDOF 0
ENDMDL
MODEL 8
REMARK VINA RESULT:      -8.0     10.850     12.721
REMARK  Name = 6323220
REMARK  0 active torsions:
REMARK  status: ('A' for Active; 'I' for Inactive)
REMARK                            x       y       z     vdW  Elec       q    Type
REMARK                         _______ _______ _______ _____ _____    ______ ____
ROOT
ATOM      1  O   UNL     1      37.248 -24.690 -11.255  0.00  0.00    -0.432 OA
ATOM      2  O   UNL     1      34.985 -24.736 -11.094  0.00  0.00    -0.226 OA
ATOM      3  O   UNL     1      33.217 -24.760 -12.849  0.00  0.00    -0.208 OA
ATOM      4  N   UNL     1      36.082 -24.224 -13.131  0.00  0.00    -0.209 N 
ATOM      5  N   UNL     1      36.852 -23.690 -15.710  0.00  0.00    -0.318 N 
ATOM      6  N   UNL     1      34.539 -23.447 -16.324  0.00  0.00    -0.263 N 
ATOM      7  N   UNL     1      32.753 -23.743 -14.827  0.00  0.00    -0.301 NA
ATOM      8  N   UNL     1      32.399 -22.987 -17.026  0.00  0.00    -0.320 N 
ATOM      9  C   UNL     1      37.464 -23.888 -13.404  0.00  0.00    +0.147 C 
ATOM     10  C   UNL     1      37.884 -24.200 -14.831  0.00  0.00    +0.112 C 
ATOM     11  C   UNL     1      38.195 -24.650 -12.333  0.00  0.00    +0.232 C 
ATOM     12  C   UNL     1      35.116 -24.032 -14.114  0.00  0.00    +0.180 C 
ATOM     13  C   UNL     1      35.504 -23.723 -15.382  0.00  0.00    +0.127 C 
ATOM     14  C   UNL     1      35.978 -24.564 -11.785  0.00  0.00    +0.409 C 
ATOM     15  C   UNL     1      33.632 -24.208 -13.860  0.00  0.00    +0.224 C 
ATOM     16  C   UNL     1      33.208 -23.412 -16.005  0.00  0.00    +0.248 C 
ATOM     17  H   UNL     1      37.118 -23.302 -16.575  0.00  0.00    +0.148 HD
ATOM     18  H   UNL     1      34.813 -23.272 -17.253  0.00  0.00    +0.157 HD
ATOM     19  H   UNL     1      32.792 -22.748 -17.897  0.00  0.00    +0.146 HD
ATOM     20  H   UNL     1      31.427 -22.918 -16.888  0.00  0.00    +0.146 HD
ENDROOT
TORSDOF 0
ENDMDL
MODEL 9
REMARK VINA RESULT:      -8.0      9.227     11.163
REMARK  Name = 6323220
REMARK  0 active torsions:
REMARK  status: ('A' for Active; 'I' for Inactive)
REMARK                            x       y       z     vdW  Elec       q    Type
REMARK                         _______ _______ _______ _____ _____    ______ ____
ROOT
ATOM      1  O   UNL     1      35.651 -22.775 -17.058  0.00  0.00    -0.432 OA
ATOM      2  O   UNL     1      33.640 -22.523 -18.079  0.00  0.00    -0.226 OA
ATOM      3  O   UNL     1      31.319 -22.771 -17.209  0.00  0.00    -0.208 OA
ATOM      4  N   UNL     1      33.845 -23.571 -15.963  0.00  0.00    -0.209 N 
ATOM      5  N   UNL     1      33.534 -24.741 -13.501  0.00  0.00    -0.318 N 
ATOM      6  N   UNL     1      31.175 -24.944 -13.922  0.00  0.00    -0.263 N 
ATOM      7  N   UNL     1      30.129 -24.179 -15.881  0.00  0.00    -0.301 NA
ATOM      8  N   UNL     1      28.944 -25.392 -14.250  0.00  0.00    -0.320 N 
ATOM      9  C   UNL     1      35.011 -24.064 -15.259  0.00  0.00    +0.147 C 
ATOM     10  C   UNL     1      34.818 -24.121 -13.752  0.00  0.00    +0.112 C 
ATOM     11  C   UNL     1      36.090 -23.132 -15.739  0.00  0.00    +0.232 C 
ATOM     12  C   UNL     1      32.572 -23.911 -15.516  0.00  0.00    +0.180 C 
ATOM     13  C   UNL     1      32.429 -24.532 -14.313  0.00  0.00    +0.127 C 
ATOM     14  C   UNL     1      34.278 -22.924 -17.117  0.00  0.00    +0.409 C 
ATOM     15  C   UNL     1      31.309 -23.571 -16.282  0.00  0.00    +0.224 C 
ATOM     16  C   UNL     1      30.083 -24.805 -14.737  0.00  0.00    +0.248 C 
ATOM     17  H   UNL     1      33.442 -25.336 -12.722  0.00  0.00    +0.148 HD
ATOM     18  H   UNL     1      31.060 -25.349 -13.032  0.00  0.00    +0.157 HD
ATOM     19  H   UNL     1      28.962 -25.854 -13.380  0.00  0.00    +0.146 HD
ATOM     20  H   UNL     1      28.110 -25.354 -14.770  0.00  0.00    +0.146 HD
ENDROOT
TORSDOF 0
ENDMDL
