MODEL 1
REMARK VINA RESULT:      -8.2      0.000      0.000
REMARK  Name = 1615
REMARK  3 active torsions:
REMARK  status: ('A' for Active; 'I' for Inactive)
REMARK    1  A    between atoms: C_3  and  C_10
REMARK    2  A    between atoms: C_10  and  C_11
REMARK    3  A    between atoms: C_11  and  N_13
REMARK                            x       y       z     vdW  Elec       q    Type
REMARK                         _______ _______ _______ _____ _____    ______ ____
ROOT
ATOM      1  O   UNL     1      32.616 -22.176 -18.791  0.00  0.00    -0.435 OA
ATOM      2  O   UNL     1      34.844 -22.903 -18.225  0.00  0.00    -0.435 OA
ATOM      3  C   UNL     1      34.467 -19.796 -20.882  0.00  0.00    -0.021 C 
ATOM      4  C   UNL     1      33.351 -20.419 -20.318  0.00  0.00    +0.036 C 
ATOM      5  C   UNL     1      33.575 -21.456 -19.436  0.00  0.00    +0.176 C 
ATOM      6  C   UNL     1      35.767 -20.220 -20.552  0.00  0.00    -0.001 C 
ATOM      7  C   UNL     1      34.846 -21.872 -19.112  0.00  0.00    +0.176 C 
ATOM      8  C   UNL     1      35.964 -21.272 -19.654  0.00  0.00    +0.040 C 
ATOM      9  C   UNL     1      33.428 -23.091 -18.026  0.00  0.00    +0.429 C 
ENDROOT
BRANCH   3  10
ATOM     10  C   UNL     1      34.279 -18.670 -21.843  0.00  0.00    +0.005 C 
BRANCH  10  11
ATOM     11  C   UNL     1      35.326 -18.626 -22.980  0.00  0.00    -0.058 C 
ATOM     12  C   UNL     1      34.771 -19.165 -24.300  0.00  0.00    -0.023 C 
BRANCH  11  13
ATOM     13  N   UNL     1      35.776 -17.248 -23.198  0.00  0.00    +0.384 N 
ATOM     14  C   UNL     1      34.930 -16.314 -22.476  0.00  0.00    -0.106 C 
ATOM     15  H   UNL     1      35.735 -17.035 -24.195  0.00  0.00    -0.085 HD
ATOM     16  H   UNL     1      36.733 -17.157 -22.858  0.00  0.00    -0.085 HD
ENDBRANCH  11  13
ENDBRANCH  10  11
ENDBRANCH   3  10
TORSDOF 3
ENDMDL
MODEL 2
REMARK VINA RESULT:      -8.0      0.978      2.165
REMARK  Name = 1615
REMARK  3 active torsions:
REMARK  status: ('A' for Active; 'I' for Inactive)
REMARK    1  A    between atoms: C_3  and  C_10
REMARK    2  A    between atoms: C_10  and  C_11
REMARK    3  A    between atoms: C_11  and  N_13
REMARK                            x       y       z     vdW  Elec       q    Type
REMARK                         _______ _______ _______ _____ _____    ______ ____
ROOT
ATOM      1  O   UNL     1      35.125 -22.453 -18.750  0.00  0.00    -0.435 OA
ATOM      2  O   UNL     1      32.724 -22.243 -18.816  0.00  0.00    -0.435 OA
ATOM      3  C   UNL     1      34.937 -19.554 -20.992  0.00  0.00    -0.021 C 
ATOM      4  C   UNL     1      35.542 -20.561 -20.235  0.00  0.00    +0.036 C 
ATOM      5  C   UNL     1      34.718 -21.418 -19.535  0.00  0.00    +0.176 C 
ATOM      6  C   UNL     1      33.536 -19.432 -21.030  0.00  0.00    -0.001 C 
ATOM      7  C   UNL     1      33.347 -21.299 -19.573  0.00  0.00    +0.176 C 
ATOM      8  C   UNL     1      32.725 -20.314 -20.313  0.00  0.00    +0.040 C 
ATOM      9  C   UNL     1      33.856 -22.971 -18.298  0.00  0.00    +0.429 C 
ENDROOT
BRANCH   3  10
ATOM     10  C   UNL     1      35.783 -18.600 -21.766  0.00  0.00    +0.005 C 
BRANCH  10  11
ATOM     11  C   UNL     1      35.003 -17.417 -22.383  0.00  0.00    -0.058 C 
ATOM     12  C   UNL     1      34.881 -16.236 -21.418  0.00  0.00    -0.023 C 
BRANCH  11  13
ATOM     13  N   UNL     1      35.674 -16.950 -23.600  0.00  0.00    +0.384 N 
ATOM     14  C   UNL     1      34.746 -16.922 -24.718  0.00  0.00    -0.106 C 
ATOM     15  H   UNL     1      36.445 -17.580 -23.821  0.00  0.00    -0.085 HD
ATOM     16  H   UNL     1      36.026 -16.006 -23.440  0.00  0.00    -0.085 HD
ENDBRANCH  11  13
ENDBRANCH  10  11
ENDBRANCH   3  10
TORSDOF 3
ENDMDL
MODEL 3
REMARK VINA RESULT:      -7.6      4.281      6.866
REMARK  Name = 1615
REMARK  3 active torsions:
REMARK  status: ('A' for Active; 'I' for Inactive)
REMARK    1  A    between atoms: C_3  and  C_10
REMARK    2  A    between atoms: C_10  and  C_11
REMARK    3  A    between atoms: C_11  and  N_13
REMARK                            x       y       z     vdW  Elec       q    Type
REMARK                         _______ _______ _______ _____ _____    ______ ____
ROOT
ATOM      1  O   UNL     1      33.661 -16.070 -26.282  0.00  0.00    -0.435 OA
ATOM      2  O   UNL     1      32.994 -14.199 -24.917  0.00  0.00    -0.435 OA
ATOM      3  C   UNL     1      35.174 -17.184 -23.130  0.00  0.00    -0.021 C 
ATOM      4  C   UNL     1      34.824 -17.239 -24.481  0.00  0.00    +0.036 C 
ATOM      5  C   UNL     1      34.089 -16.190 -24.995  0.00  0.00    +0.176 C 
ATOM      6  C   UNL     1      34.784 -16.092 -22.333  0.00  0.00    -0.001 C 
ATOM      7  C   UNL     1      33.708 -15.122 -24.216  0.00  0.00    +0.176 C 
ATOM      8  C   UNL     1      34.041 -15.044 -22.879  0.00  0.00    +0.040 C 
ATOM      9  C   UNL     1      32.968 -14.806 -26.224  0.00  0.00    +0.429 C 
ENDROOT
BRANCH   3  10
ATOM     10  C   UNL     1      35.967 -18.294 -22.525  0.00  0.00    +0.005 C 
BRANCH  10  11
ATOM     11  C   UNL     1      35.485 -18.726 -21.121  0.00  0.00    -0.058 C 
ATOM     12  C   UNL     1      34.225 -19.591 -21.181  0.00  0.00    -0.023 C 
BRANCH  11  13
ATOM     13  N   UNL     1      36.535 -19.490 -20.440  0.00  0.00    +0.384 N 
ATOM     14  C   UNL     1      36.046 -20.804 -20.058  0.00  0.00    -0.106 C 
ATOM     15  H   UNL     1      36.829 -18.985 -19.604  0.00  0.00    -0.085 HD
ATOM     16  H   UNL     1      37.324 -19.604 -21.077  0.00  0.00    -0.085 HD
ENDBRANCH  11  13
ENDBRANCH  10  11
ENDBRANCH   3  10
TORSDOF 3
ENDMDL
MODEL 4
REMARK VINA RESULT:      -7.3      3.850      6.315
REMARK  Name = 1615
REMARK  3 active torsions:
REMARK  status: ('A' for Active; 'I' for Inactive)
REMARK    1  A    between atoms: C_3  and  C_10
REMARK    2  A    between atoms: C_10  and  C_11
REMARK    3  A    between atoms: C_11  and  N_13
REMARK                            x       y       z     vdW  Elec       q    Type
REMARK                         _______ _______ _______ _____ _____    ______ ____
ROOT
ATOM      1  O   UNL     1      34.046 -15.120 -24.024  0.00  0.00    -0.435 OA
ATOM      2  O   UNL     1      33.741 -16.568 -25.926  0.00  0.00    -0.435 OA
ATOM      3  C   UNL     1      35.213 -18.234 -22.475  0.00  0.00    -0.021 C 
ATOM      4  C   UNL     1      34.896 -16.876 -22.557  0.00  0.00    +0.036 C 
ATOM      5  C   UNL     1      34.408 -16.405 -23.758  0.00  0.00    +0.176 C 
ATOM      6  C   UNL     1      35.035 -19.080 -23.585  0.00  0.00    -0.001 C 
ATOM      7  C   UNL     1      34.233 -17.231 -24.845  0.00  0.00    +0.176 C 
ATOM      8  C   UNL     1      34.538 -18.576 -24.789  0.00  0.00    +0.040 C 
ATOM      9  C   UNL     1      33.624 -15.231 -25.399  0.00  0.00    +0.429 C 
ENDROOT
BRANCH   3  10
ATOM     10  C   UNL     1      35.746 -18.794 -21.198  0.00  0.00    +0.005 C 
BRANCH  10  11
ATOM     11  C   UNL     1      35.245 -20.220 -20.873  0.00  0.00    -0.058 C 
ATOM     12  C   UNL     1      36.131 -20.925 -19.845  0.00  0.00    -0.023 C 
BRANCH  11  13
ATOM     13  N   UNL     1      33.879 -20.166 -20.344  0.00  0.00    +0.384 N 
ATOM     14  C   UNL     1      33.570 -21.376 -19.601  0.00  0.00    -0.106 C 
ATOM     15  H   UNL     1      33.222 -20.072 -21.119  0.00  0.00    -0.085 HD
ATOM     16  H   UNL     1      33.800 -19.366 -19.717  0.00  0.00    -0.085 HD
ENDBRANCH  11  13
ENDBRANCH  10  11
ENDBRANCH   3  10
TORSDOF 3
ENDMDL
MODEL 5
REMARK VINA RESULT:      -7.0      3.611      5.973
REMARK  Name = 1615
REMARK  3 active torsions:
REMARK  status: ('A' for Active; 'I' for Inactive)
REMARK    1  A    between atoms: C_3  and  C_10
REMARK    2  A    between atoms: C_10  and  C_11
REMARK    3  A    between atoms: C_11  and  N_13
REMARK                            x       y       z     vdW  Elec       q    Type
REMARK                         _______ _______ _______ _____ _____    ______ ____
ROOT
ATOM      1  O   UNL     1      34.630 -15.251 -21.187  0.00  0.00    -0.435 OA
ATOM      2  O   UNL     1      34.576 -15.120 -23.594  0.00  0.00    -0.435 OA
ATOM      3  C   UNL     1      35.209 -18.804 -21.896  0.00  0.00    -0.021 C 
ATOM      4  C   UNL     1      35.030 -17.658 -21.117  0.00  0.00    +0.036 C 
ATOM      5  C   UNL     1      34.824 -16.463 -21.775  0.00  0.00    +0.176 C 
ATOM      6  C   UNL     1      35.177 -18.728 -23.300  0.00  0.00    -0.001 C 
ATOM      7  C   UNL     1      34.793 -16.388 -23.149  0.00  0.00    +0.176 C 
ATOM      8  C   UNL     1      34.966 -17.505 -23.941  0.00  0.00    +0.040 C 
ATOM      9  C   UNL     1      34.473 -14.405 -22.346  0.00  0.00    +0.429 C 
ENDROOT
BRANCH   3  10
ATOM     10  C   UNL     1      35.436 -20.121 -21.233  0.00  0.00    +0.005 C 
BRANCH  10  11
ATOM     11  C   UNL     1      34.477 -20.413 -20.056  0.00  0.00    -0.058 C 
ATOM     12  C   UNL     1      33.027 -20.572 -20.515  0.00  0.00    -0.023 C 
BRANCH  11  13
ATOM     13  N   UNL     1      34.881 -21.644 -19.370  0.00  0.00    +0.384 N 
ATOM     14  C   UNL     1      33.717 -22.355 -18.867  0.00  0.00    -0.106 C 
ATOM     15  H   UNL     1      35.492 -21.408 -18.588  0.00  0.00    -0.085 HD
ATOM     16  H   UNL     1      35.372 -22.244 -20.032  0.00  0.00    -0.085 HD
ENDBRANCH  11  13
ENDBRANCH  10  11
ENDBRANCH   3  10
TORSDOF 3
ENDMDL
MODEL 6
REMARK VINA RESULT:      -7.0      3.760      6.089
REMARK  Name = 1615
REMARK  3 active torsions:
REMARK  status: ('A' for Active; 'I' for Inactive)
REMARK    1  A    between atoms: C_3  and  C_10
REMARK    2  A    between atoms: C_10  and  C_11
REMARK    3  A    between atoms: C_11  and  N_13
REMARK                            x       y       z     vdW  Elec       q    Type
REMARK                         _______ _______ _______ _____ _____    ______ ____
ROOT
ATOM      1  O   UNL     1      34.484 -17.644 -25.382  0.00  0.00    -0.435 OA
ATOM      2  O   UNL     1      34.397 -15.532 -24.222  0.00  0.00    -0.435 OA
ATOM      3  C   UNL     1      35.187 -18.897 -22.006  0.00  0.00    -0.021 C 
ATOM      4  C   UNL     1      34.973 -18.960 -23.385  0.00  0.00    +0.036 C 
ATOM      5  C   UNL     1      34.714 -17.777 -24.047  0.00  0.00    +0.176 C 
ATOM      6  C   UNL     1      35.136 -17.665 -21.329  0.00  0.00    -0.001 C 
ATOM      7  C   UNL     1      34.664 -16.572 -23.385  0.00  0.00    +0.176 C 
ATOM      8  C   UNL     1      34.872 -16.483 -22.024  0.00  0.00    +0.040 C 
ATOM      9  C   UNL     1      34.284 -16.218 -25.485  0.00  0.00    +0.429 C 
ENDROOT
BRANCH   3  10
ATOM     10  C   UNL     1      35.470 -20.147 -21.243  0.00  0.00    +0.005 C 
BRANCH  10  11
ATOM     11  C   UNL     1      34.527 -20.385 -20.041  0.00  0.00    -0.058 C 
ATOM     12  C   UNL     1      33.068 -20.546 -20.472  0.00  0.00    -0.023 C 
BRANCH  11  13
ATOM     13  N   UNL     1      34.929 -21.594 -19.316  0.00  0.00    +0.384 N 
ATOM     14  C   UNL     1      33.786 -22.466 -19.102  0.00  0.00    -0.106 C 
ATOM     15  H   UNL     1      35.322 -21.329 -18.413  0.00  0.00    -0.085 HD
ATOM     16  H   UNL     1      35.625 -22.094 -19.870  0.00  0.00    -0.085 HD
ENDBRANCH  11  13
ENDBRANCH  10  11
ENDBRANCH   3  10
TORSDOF 3
ENDMDL
MODEL 7
REMARK VINA RESULT:      -6.9      3.435      5.981
REMARK  Name = 1615
REMARK  3 active torsions:
REMARK  status: ('A' for Active; 'I' for Inactive)
REMARK    1  A    between atoms: C_3  and  C_10
REMARK    2  A    between atoms: C_10  and  C_11
REMARK    3  A    between atoms: C_11  and  N_13
REMARK                            x       y       z     vdW  Elec       q    Type
REMARK                         _______ _______ _______ _____ _____    ______ ____
ROOT
ATOM      1  O   UNL     1      36.719 -19.779 -20.537  0.00  0.00    -0.435 OA
ATOM      2  O   UNL     1      34.871 -18.537 -21.461  0.00  0.00    -0.435 OA
ATOM      3  C   UNL     1      34.009 -21.924 -19.305  0.00  0.00    -0.021 C 
ATOM      4  C   UNL     1      35.324 -21.495 -19.504  0.00  0.00    +0.036 C 
ATOM      5  C   UNL     1      35.517 -20.346 -20.243  0.00  0.00    +0.176 C 
ATOM      6  C   UNL     1      32.930 -21.200 -19.845  0.00  0.00    -0.001 C 
ATOM      7  C   UNL     1      34.462 -19.637 -20.770  0.00  0.00    +0.176 C 
ATOM      8  C   UNL     1      33.155 -20.039 -20.588  0.00  0.00    +0.040 C 
ATOM      9  C   UNL     1      36.301 -18.634 -21.309  0.00  0.00    +0.429 C 
ENDROOT
BRANCH   3  10
ATOM     10  C   UNL     1      33.746 -23.161 -18.515  0.00  0.00    +0.005 C 
BRANCH  10  11
ATOM     11  C   UNL     1      33.495 -22.911 -17.010  0.00  0.00    -0.058 C 
ATOM     12  C   UNL     1      32.059 -23.241 -16.598  0.00  0.00    -0.023 C 
BRANCH  11  13
ATOM     13  N   UNL     1      34.405 -23.732 -16.204  0.00  0.00    +0.384 N 
ATOM     14  C   UNL     1      35.143 -22.904 -15.265  0.00  0.00    -0.106 C 
ATOM     15  H   UNL     1      35.063 -24.207 -16.821  0.00  0.00    -0.085 HD
ATOM     16  H   UNL     1      33.856 -24.414 -15.681  0.00  0.00    -0.085 HD
ENDBRANCH  11  13
ENDBRANCH  10  11
ENDBRANCH   3  10
TORSDOF 3
ENDMDL
MODEL 8
REMARK VINA RESULT:      -6.9      7.130      8.644
REMARK  Name = 1615
REMARK  3 active torsions:
REMARK  status: ('A' for Active; 'I' for Inactive)
REMARK    1  A    between atoms: C_3  and  C_10
REMARK    2  A    between atoms: C_10  and  C_11
REMARK    3  A    between atoms: C_11  and  N_13
REMARK                            x       y       z     vdW  Elec       q    Type
REMARK                         _______ _______ _______ _____ _____    ______ ____
ROOT
ATOM      1  O   UNL     1      29.181 -22.288 -17.034  0.00  0.00    -0.435 OA
ATOM      2  O   UNL     1      27.835 -24.233 -16.570  0.00  0.00    -0.435 OA
ATOM      3  C   UNL     1      31.393 -23.851 -14.558  0.00  0.00    -0.021 C 
ATOM      4  C   UNL     1      30.966 -22.894 -15.482  0.00  0.00    +0.036 C 
ATOM      5  C   UNL     1      29.757 -23.107 -16.111  0.00  0.00    +0.176 C 
ATOM      6  C   UNL     1      30.607 -24.986 -14.288  0.00  0.00    -0.001 C 
ATOM      7  C   UNL     1      28.987 -24.217 -15.847  0.00  0.00    +0.176 C 
ATOM      8  C   UNL     1      29.386 -25.176 -14.938  0.00  0.00    +0.040 C 
ATOM      9  C   UNL     1      27.964 -23.008 -17.320  0.00  0.00    +0.429 C 
ENDROOT
BRANCH   3  10
ATOM     10  C   UNL     1      32.695 -23.668 -13.852  0.00  0.00    +0.005 C 
BRANCH  10  11
ATOM     11  C   UNL     1      33.923 -24.169 -14.646  0.00  0.00    -0.058 C 
ATOM     12  C   UNL     1      34.697 -23.023 -15.299  0.00  0.00    -0.023 C 
BRANCH  11  13
ATOM     13  N   UNL     1      34.836 -24.895 -13.757  0.00  0.00    +0.384 N 
ATOM     14  C   UNL     1      35.066 -24.142 -12.536  0.00  0.00    -0.106 C 
ATOM     15  H   UNL     1      35.726 -25.038 -14.235  0.00  0.00    -0.085 HD
ATOM     16  H   UNL     1      34.417 -25.793 -13.517  0.00  0.00    -0.085 HD
ENDBRANCH  11  13
ENDBRANCH  10  11
ENDBRANCH   3  10
TORSDOF 3
ENDMDL
MODEL 9
REMARK VINA RESULT:      -6.7      3.863      5.847
REMARK  Name = 1615
REMARK  3 active torsions:
REMARK  status: ('A' for Active; 'I' for Inactive)
REMARK    1  A    between atoms: C_3  and  C_10
REMARK    2  A    between atoms: C_10  and  C_11
REMARK    3  A    between atoms: C_11  and  N_13
REMARK                            x       y       z     vdW  Elec       q    Type
REMARK                         _______ _______ _______ _____ _____    ______ ____
ROOT
ATOM      1  O   UNL     1      35.203 -17.179 -20.814  0.00  0.00    -0.435 OA
ATOM      2  O   UNL     1      35.886 -18.831 -22.431  0.00  0.00    -0.435 OA
ATOM      3  C   UNL     1      33.913 -15.507 -23.814  0.00  0.00    -0.021 C 
ATOM      4  C   UNL     1      34.185 -15.687 -22.456  0.00  0.00    +0.036 C 
ATOM      5  C   UNL     1      34.853 -16.835 -22.084  0.00  0.00    +0.176 C 
ATOM      6  C   UNL     1      34.311 -16.471 -24.758  0.00  0.00    -0.001 C 
ATOM      7  C   UNL     1      35.243 -17.779 -23.007  0.00  0.00    +0.176 C 
ATOM      8  C   UNL     1      34.987 -17.625 -24.354  0.00  0.00    +0.040 C 
ATOM      9  C   UNL     1      35.858 -18.444 -21.043  0.00  0.00    +0.429 C 
ENDROOT
BRANCH   3  10
ATOM     10  C   UNL     1      33.192 -14.282 -24.269  0.00  0.00    +0.005 C 
BRANCH  10  11
ATOM     11  C   UNL     1      33.227 -13.113 -23.257  0.00  0.00    -0.058 C 
ATOM     12  C   UNL     1      33.655 -11.797 -23.907  0.00  0.00    -0.023 C 
BRANCH  11  13
ATOM     13  N   UNL     1      31.901 -12.924 -22.661  0.00  0.00    +0.384 N 
ATOM     14  C   UNL     1      31.756 -11.568 -22.158  0.00  0.00    -0.106 C 
ATOM     15  H   UNL     1      31.783 -13.581 -21.890  0.00  0.00    -0.085 HD
ATOM     16  H   UNL     1      31.193 -13.087 -23.375  0.00  0.00    -0.085 HD
ENDBRANCH  11  13
ENDBRANCH  10  11
ENDBRANCH   3  10
TORSDOF 3
ENDMDL
