MODEL 1
REMARK VINA RESULT:     -11.4      0.000      0.000
REMARK  Name = 5362507
REMARK  4 active torsions:
REMARK  status: ('A' for Active; 'I' for Inactive)
REMARK    1  A    between atoms: C_12  and  O_21
REMARK    2  A    between atoms: C_18  and  O_23
REMARK    3  A    between atoms: O_23  and  C_24
REMARK    4  A    between atoms: C_24  and  C_25
REMARK                            x       y       z     vdW  Elec       q    Type
REMARK                         _______ _______ _______ _____ _____    ______ ____
ROOT
ATOM      1  O   UNL     1      31.585 -11.293 -22.842  0.00  0.00    -0.473 OA
ATOM      2  N   UNL     1      31.591  -6.075 -23.377  0.00  0.00    +0.387 N 
ATOM      3  C   UNL     1      31.491  -8.871 -22.604  0.00  0.00    +0.061 C 
ATOM      4  C   UNL     1      31.879  -7.755 -21.623  0.00  0.00    +0.010 C 
ATOM      5  C   UNL     1      32.603  -6.650 -22.459  0.00  0.00    -0.049 C 
ATOM      6  C   UNL     1      31.021 -10.219 -22.011  0.00  0.00    +0.200 C 
ATOM      7  C   UNL     1      30.516  -8.309 -23.658  0.00  0.00    -0.015 C 
ATOM      8  C   UNL     1      32.733  -9.367 -23.267  0.00  0.00    +0.014 C 
ATOM      9  C   UNL     1      33.906  -7.175 -23.156  0.00  0.00    +0.006 C 
ATOM     10  C   UNL     1      31.045  -7.037 -24.339  0.00  0.00    -0.077 C 
ATOM     11  C   UNL     1      33.845  -8.613 -23.597  0.00  0.00    -0.025 C 
ATOM     12  C   UNL     1      31.384 -10.425 -20.516  0.00  0.00    +0.172 C 
ATOM     13  C   UNL     1      32.677  -8.290 -20.461  0.00  0.00    -0.030 C 
ATOM     14  C   UNL     1      32.692 -10.735 -23.423  0.00  0.00    +0.168 C 
ATOM     15  C   UNL     1      32.458  -9.519 -19.974  0.00  0.00    +0.002 C 
ATOM     16  C   UNL     1      34.901  -9.275 -24.225  0.00  0.00    -0.001 C 
ATOM     17  C   UNL     1      32.035  -4.853 -24.039  0.00  0.00    -0.101 C 
ATOM     18  C   UNL     1      33.718 -11.409 -24.047  0.00  0.00    +0.172 C 
ATOM     19  C   UNL     1      34.826 -10.662 -24.467  0.00  0.00    +0.040 C 
ATOM     20  H   UNL     1      30.821  -5.816 -22.761  0.00  0.00    -0.080 HD
ENDROOT
BRANCH  12  21
ATOM     21  O   UNL     1      31.721 -11.790 -20.281  0.00  0.00    -0.377 OA
ATOM     22  H   UNL     1      31.139 -12.152 -19.595  0.00  0.00    +0.211 HD
ENDBRANCH  12  21
BRANCH  18  23
ATOM     23  O   UNL     1      33.681 -12.752 -24.224  0.00  0.00    -0.468 OA
BRANCH  23  24
ATOM     24  C   UNL     1      33.939 -13.571 -23.081  0.00  0.00    +0.232 C 
BRANCH  24  25
ATOM     25  C   UNL     1      34.259 -14.977 -23.464  0.00  0.00    +0.021 C 
ATOM     26  C   UNL     1      33.911 -15.452 -24.727  0.00  0.00    -0.001 C 
ATOM     27  C   UNL     1      34.908 -15.816 -22.557  0.00  0.00    -0.001 C 
ATOM     28  C   UNL     1      34.209 -16.767 -25.086  0.00  0.00    -0.000 C 
ATOM     29  C   UNL     1      35.207 -17.131 -22.915  0.00  0.00    -0.000 C 
ATOM     30  C   UNL     1      34.858 -17.605 -24.179  0.00  0.00    -0.000 C 
ENDBRANCH  24  25
ENDBRANCH  23  24
ENDBRANCH  18  23
TORSDOF 4
ENDMDL
MODEL 2
REMARK VINA RESULT:      -8.5     11.492     16.247
REMARK  Name = 5362507
REMARK  4 active torsions:
REMARK  status: ('A' for Active; 'I' for Inactive)
REMARK    1  A    between atoms: C_12  and  O_21
REMARK    2  A    between atoms: C_18  and  O_23
REMARK    3  A    between atoms: O_23  and  C_24
REMARK    4  A    between atoms: C_24  and  C_25
REMARK                            x       y       z     vdW  Elec       q    Type
REMARK                         _______ _______ _______ _____ _____    ______ ____
ROOT
ATOM      1  O   UNL     1      35.129 -25.328 -15.908  0.00  0.00    -0.473 OA
ATOM      2  N   UNL     1      36.478 -23.931 -11.035  0.00  0.00    +0.387 N 
ATOM      3  C   UNL     1      36.006 -25.108 -13.647  0.00  0.00    +0.061 C 
ATOM      4  C   UNL     1      37.274 -25.393 -12.828  0.00  0.00    +0.010 C 
ATOM      5  C   UNL     1      37.584 -24.097 -12.010  0.00  0.00    -0.049 C 
ATOM      6  C   UNL     1      35.633 -26.107 -14.766  0.00  0.00    +0.200 C 
ATOM      7  C   UNL     1      34.833 -24.819 -12.688  0.00  0.00    -0.015 C 
ATOM      8  C   UNL     1      36.263 -23.921 -14.515  0.00  0.00    +0.014 C 
ATOM      9  C   UNL     1      37.850 -22.852 -12.925  0.00  0.00    +0.006 C 
ATOM     10  C   UNL     1      35.164 -23.731 -11.655  0.00  0.00    -0.077 C 
ATOM     11  C   UNL     1      37.054 -22.830 -14.201  0.00  0.00    -0.025 C 
ATOM     12  C   UNL     1      36.789 -27.045 -15.201  0.00  0.00    +0.172 C 
ATOM     13  C   UNL     1      38.405 -25.869 -13.704  0.00  0.00    -0.030 C 
ATOM     14  C   UNL     1      35.689 -24.089 -15.756  0.00  0.00    +0.168 C 
ATOM     15  C   UNL     1      38.173 -26.607 -14.798  0.00  0.00    +0.002 C 
ATOM     16  C   UNL     1      37.153 -21.818 -15.158  0.00  0.00    -0.001 C 
ATOM     17  C   UNL     1      36.747 -22.920 -10.018  0.00  0.00    -0.101 C 
ATOM     18  C   UNL     1      35.766 -23.101 -16.712  0.00  0.00    +0.172 C 
ATOM     19  C   UNL     1      36.494 -21.947 -16.397  0.00  0.00    +0.040 C 
ATOM     20  H   UNL     1      36.436 -24.830 -10.557  0.00  0.00    -0.080 HD
ENDROOT
BRANCH  12  21
ATOM     21  O   UNL     1      36.730 -27.269 -16.607  0.00  0.00    -0.377 OA
ATOM     22  H   UNL     1      37.344 -27.981 -16.847  0.00  0.00    +0.211 HD
ENDBRANCH  12  21
BRANCH  18  23
ATOM     23  O   UNL     1      35.189 -23.246 -17.930  0.00  0.00    -0.468 OA
BRANCH  23  24
ATOM     24  C   UNL     1      33.943 -22.581 -18.150  0.00  0.00    +0.232 C 
BRANCH  24  25
ATOM     25  C   UNL     1      34.044 -21.551 -19.224  0.00  0.00    +0.021 C 
ATOM     26  C   UNL     1      35.285 -21.240 -19.779  0.00  0.00    -0.001 C 
ATOM     27  C   UNL     1      32.895 -20.898 -19.674  0.00  0.00    -0.001 C 
ATOM     28  C   UNL     1      35.379 -20.276 -20.783  0.00  0.00    -0.000 C 
ATOM     29  C   UNL     1      32.989 -19.934 -20.677  0.00  0.00    -0.000 C 
ATOM     30  C   UNL     1      34.230 -19.624 -21.232  0.00  0.00    -0.000 C 
ENDBRANCH  24  25
ENDBRANCH  23  24
ENDBRANCH  18  23
TORSDOF 4
ENDMDL
