MODEL 1
REMARK VINA RESULT:      -7.0      0.000      0.000
REMARK  Name = 9294
REMARK  4 active torsions:
REMARK  status: ('A' for Active; 'I' for Inactive)
REMARK    1  A    between atoms: C_1  and  C_2
REMARK    2  A    between atoms: C_1  and  O_8
REMARK    3  A    between atoms: C_1  and  C_10
REMARK    4  A    between atoms: C_10  and  N_12
REMARK                            x       y       z     vdW  Elec       q    Type
REMARK                         _______ _______ _______ _____ _____    ______ ____
ROOT
ATOM      1  C   UNL     1      35.484 -18.084 -21.977  0.00  0.00    +0.113 C 
ENDROOT
BRANCH   1   2
ATOM      2  C   UNL     1      34.923 -19.227 -21.159  0.00  0.00    +0.002 C 
ATOM      3  C   UNL     1      35.792 -20.153 -20.609  0.00  0.00    -0.002 C 
ATOM      4  C   UNL     1      33.554 -19.323 -20.980  0.00  0.00    -0.002 C 
ATOM      5  C   UNL     1      35.275 -21.207 -19.854  0.00  0.00    -0.000 C 
ATOM      6  C   UNL     1      33.038 -20.376 -20.226  0.00  0.00    -0.000 C 
ATOM      7  C   UNL     1      33.899 -21.318 -19.662  0.00  0.00    -0.000 C 
ENDBRANCH   1   2
BRANCH   1   8
ATOM      8  O   UNL     1      36.864 -18.381 -22.208  0.00  0.00    -0.382 OA
ATOM      9  H   UNL     1      37.293 -17.620 -22.628  0.00  0.00    +0.211 HD
ENDBRANCH   1   8
BRANCH   1  10
ATOM     10  C   UNL     1      34.758 -17.869 -23.324  0.00  0.00    -0.030 C 
ATOM     11  C   UNL     1      34.883 -19.073 -24.259  0.00  0.00    -0.021 C 
BRANCH  10  12
ATOM     12  N   UNL     1      35.327 -16.701 -24.008  0.00  0.00    +0.385 N 
ATOM     13  C   UNL     1      34.636 -15.488 -23.609  0.00  0.00    -0.105 C 
ATOM     14  H   UNL     1      35.233 -16.825 -25.017  0.00  0.00    -0.084 HD
ATOM     15  H   UNL     1      36.312 -16.619 -23.755  0.00  0.00    -0.084 HD
ENDBRANCH  10  12
ENDBRANCH   1  10
TORSDOF 4
ENDMDL
MODEL 2
REMARK VINA RESULT:      -6.8      1.603      2.283
REMARK  Name = 9294
REMARK  4 active torsions:
REMARK  status: ('A' for Active; 'I' for Inactive)
REMARK    1  A    between atoms: C_1  and  C_2
REMARK    2  A    between atoms: C_1  and  O_8
REMARK    3  A    between atoms: C_1  and  C_10
REMARK    4  A    between atoms: C_10  and  N_12
REMARK                            x       y       z     vdW  Elec       q    Type
REMARK                         _______ _______ _______ _____ _____    ______ ____
ROOT
ATOM      1  C   UNL     1      35.271 -18.732 -22.101  0.00  0.00    +0.113 C 
ENDROOT
BRANCH   1   2
ATOM      2  C   UNL     1      34.747 -19.745 -21.107  0.00  0.00    +0.002 C 
ATOM      3  C   UNL     1      33.383 -19.841 -20.897  0.00  0.00    -0.002 C 
ATOM      4  C   UNL     1      35.644 -20.553 -20.428  0.00  0.00    -0.002 C 
ATOM      5  C   UNL     1      32.900 -20.775 -19.980  0.00  0.00    -0.000 C 
ATOM      6  C   UNL     1      35.160 -21.486 -19.512  0.00  0.00    -0.000 C 
ATOM      7  C   UNL     1      33.787 -21.597 -19.288  0.00  0.00    -0.000 C 
ENDBRANCH   1   2
BRANCH   1   8
ATOM      8  O   UNL     1      34.998 -19.254 -23.405  0.00  0.00    -0.382 OA
ATOM      9  H   UNL     1      35.045 -20.223 -23.382  0.00  0.00    +0.211 HD
ENDBRANCH   1   8
BRANCH   1  10
ATOM     10  C   UNL     1      34.639 -17.330 -21.952  0.00  0.00    -0.030 C 
ATOM     11  C   UNL     1      35.063 -16.371 -23.066  0.00  0.00    -0.021 C 
BRANCH  10  12
ATOM     12  N   UNL     1      35.043 -16.742 -20.669  0.00  0.00    +0.385 N 
ATOM     13  C   UNL     1      34.534 -15.387 -20.545  0.00  0.00    -0.105 C 
ATOM     14  H   UNL     1      36.062 -16.723 -20.615  0.00  0.00    -0.084 HD
ATOM     15  H   UNL     1      34.661 -17.309 -19.912  0.00  0.00    -0.084 HD
ENDBRANCH  10  12
ENDBRANCH   1  10
TORSDOF 4
ENDMDL
MODEL 3
REMARK VINA RESULT:      -6.8      1.565      1.802
REMARK  Name = 9294
REMARK  4 active torsions:
REMARK  status: ('A' for Active; 'I' for Inactive)
REMARK    1  A    between atoms: C_1  and  C_2
REMARK    2  A    between atoms: C_1  and  O_8
REMARK    3  A    between atoms: C_1  and  C_10
REMARK    4  A    between atoms: C_10  and  N_12
REMARK                            x       y       z     vdW  Elec       q    Type
REMARK                         _______ _______ _______ _____ _____    ______ ____
ROOT
ATOM      1  C   UNL     1      35.358 -18.568 -21.984  0.00  0.00    +0.113 C 
ENDROOT
BRANCH   1   2
ATOM      2  C   UNL     1      34.809 -19.633 -21.059  0.00  0.00    +0.002 C 
ATOM      3  C   UNL     1      35.690 -20.475 -20.402  0.00  0.00    -0.002 C 
ATOM      4  C   UNL     1      33.440 -19.743 -20.891  0.00  0.00    -0.002 C 
ATOM      5  C   UNL     1      35.184 -21.456 -19.549  0.00  0.00    -0.000 C 
ATOM      6  C   UNL     1      32.935 -20.724 -20.038  0.00  0.00    -0.000 C 
ATOM      7  C   UNL     1      33.808 -21.581 -19.367  0.00  0.00    -0.000 C 
ENDBRANCH   1   2
BRANCH   1   8
ATOM      8  O   UNL     1      35.238 -19.077 -23.316  0.00  0.00    -0.382 OA
ATOM      9  H   UNL     1      35.573 -18.419 -23.945  0.00  0.00    +0.211 HD
ENDBRANCH   1   8
BRANCH   1  10
ATOM     10  C   UNL     1      34.629 -17.211 -21.870  0.00  0.00    -0.030 C 
ATOM     11  C   UNL     1      35.005 -16.245 -22.995  0.00  0.00    -0.021 C 
BRANCH  10  12
ATOM     12  N   UNL     1      34.971 -16.574 -20.592  0.00  0.00    +0.385 N 
ATOM     13  C   UNL     1      34.516 -15.195 -20.570  0.00  0.00    -0.105 C 
ATOM     14  H   UNL     1      35.983 -16.596 -20.466  0.00  0.00    -0.084 HD
ATOM     15  H   UNL     1      34.512 -17.085 -19.837  0.00  0.00    -0.084 HD
ENDBRANCH  10  12
ENDBRANCH   1  10
TORSDOF 4
ENDMDL
MODEL 4
REMARK VINA RESULT:      -6.7      1.994      4.752
REMARK  Name = 9294
REMARK  4 active torsions:
REMARK  status: ('A' for Active; 'I' for Inactive)
REMARK    1  A    between atoms: C_1  and  C_2
REMARK    2  A    between atoms: C_1  and  O_8
REMARK    3  A    between atoms: C_1  and  C_10
REMARK    4  A    between atoms: C_10  and  N_12
REMARK                            x       y       z     vdW  Elec       q    Type
REMARK                         _______ _______ _______ _____ _____    ______ ____
ROOT
ATOM      1  C   UNL     1      35.828 -18.584 -21.476  0.00  0.00    +0.113 C 
ENDROOT
BRANCH   1   2
ATOM      2  C   UNL     1      35.292 -18.109 -22.809  0.00  0.00    +0.002 C 
ATOM      3  C   UNL     1      35.149 -16.751 -23.033  0.00  0.00    -0.002 C 
ATOM      4  C   UNL     1      34.956 -19.043 -23.774  0.00  0.00    -0.002 C 
ATOM      5  C   UNL     1      34.655 -16.313 -24.262  0.00  0.00    -0.000 C 
ATOM      6  C   UNL     1      34.462 -18.604 -25.002  0.00  0.00    -0.000 C 
ATOM      7  C   UNL     1      34.312 -17.238 -25.247  0.00  0.00    -0.000 C 
ENDBRANCH   1   2
BRANCH   1   8
ATOM      8  O   UNL     1      35.499 -17.575 -20.516  0.00  0.00    -0.382 OA
ATOM      9  H   UNL     1      35.550 -16.702 -20.934  0.00  0.00    +0.211 HD
ENDBRANCH   1   8
BRANCH   1  10
ATOM     10  C   UNL     1      35.256 -19.947 -21.026  0.00  0.00    -0.030 C 
ATOM     11  C   UNL     1      33.777 -19.867 -20.642  0.00  0.00    -0.021 C 
BRANCH  10  12
ATOM     12  N   UNL     1      36.002 -20.433 -19.859  0.00  0.00    +0.385 N 
ATOM     13  C   UNL     1      35.476 -21.711 -19.412  0.00  0.00    -0.105 C 
ATOM     14  H   UNL     1      35.920 -19.753 -19.101  0.00  0.00    -0.084 HD
ATOM     15  H   UNL     1      36.981 -20.552 -20.120  0.00  0.00    -0.084 HD
ENDBRANCH  10  12
ENDBRANCH   1  10
TORSDOF 4
ENDMDL
MODEL 5
REMARK VINA RESULT:      -6.7      1.288      1.733
REMARK  Name = 9294
REMARK  4 active torsions:
REMARK  status: ('A' for Active; 'I' for Inactive)
REMARK    1  A    between atoms: C_1  and  C_2
REMARK    2  A    between atoms: C_1  and  O_8
REMARK    3  A    between atoms: C_1  and  C_10
REMARK    4  A    between atoms: C_10  and  N_12
REMARK                            x       y       z     vdW  Elec       q    Type
REMARK                         _______ _______ _______ _____ _____    ______ ____
ROOT
ATOM      1  C   UNL     1      34.551 -18.122 -21.497  0.00  0.00    +0.113 C 
ENDROOT
BRANCH   1   2
ATOM      2  C   UNL     1      34.615 -19.459 -20.791  0.00  0.00    +0.002 C 
ATOM      3  C   UNL     1      35.850 -20.030 -20.537  0.00  0.00    -0.002 C 
ATOM      4  C   UNL     1      33.437 -20.083 -20.416  0.00  0.00    -0.002 C 
ATOM      5  C   UNL     1      35.909 -21.262 -19.886  0.00  0.00    -0.000 C 
ATOM      6  C   UNL     1      33.497 -21.314 -19.765  0.00  0.00    -0.000 C 
ATOM      7  C   UNL     1      34.734 -21.904 -19.500  0.00  0.00    -0.000 C 
ENDBRANCH   1   2
BRANCH   1   8
ATOM      8  O   UNL     1      35.140 -17.162 -20.615  0.00  0.00    -0.382 OA
ATOM      9  H   UNL     1      34.440 -16.678 -20.150  0.00  0.00    +0.211 HD
ENDBRANCH   1   8
BRANCH   1  10
ATOM     10  C   UNL     1      35.280 -18.103 -22.860  0.00  0.00    -0.030 C 
ATOM     11  C   UNL     1      35.185 -16.746 -23.559  0.00  0.00    -0.021 C 
BRANCH  10  12
ATOM     12  N   UNL     1      34.690 -19.113 -23.747  0.00  0.00    +0.385 N 
ATOM     13  C   UNL     1      34.213 -18.499 -24.974  0.00  0.00    -0.105 C 
ATOM     14  H   UNL     1      33.907 -19.562 -23.271  0.00  0.00    -0.084 HD
ATOM     15  H   UNL     1      35.404 -19.804 -23.980  0.00  0.00    -0.084 HD
ENDBRANCH  10  12
ENDBRANCH   1  10
TORSDOF 4
ENDMDL
MODEL 6
REMARK VINA RESULT:      -6.4      2.298      3.549
REMARK  Name = 9294
REMARK  4 active torsions:
REMARK  status: ('A' for Active; 'I' for Inactive)
REMARK    1  A    between atoms: C_1  and  C_2
REMARK    2  A    between atoms: C_1  and  O_8
REMARK    3  A    between atoms: C_1  and  C_10
REMARK    4  A    between atoms: C_10  and  N_12
REMARK                            x       y       z     vdW  Elec       q    Type
REMARK                         _______ _______ _______ _____ _____    ______ ____
ROOT
ATOM      1  C   UNL     1      34.801 -16.106 -24.630  0.00  0.00    +0.113 C 
ENDROOT
BRANCH   1   2
ATOM      2  C   UNL     1      34.850 -17.093 -23.484  0.00  0.00    +0.002 C 
ATOM      3  C   UNL     1      34.766 -18.448 -23.756  0.00  0.00    -0.002 C 
ATOM      4  C   UNL     1      34.977 -16.620 -22.189  0.00  0.00    -0.002 C 
ATOM      5  C   UNL     1      34.811 -19.358 -22.700  0.00  0.00    -0.000 C 
ATOM      6  C   UNL     1      35.022 -17.531 -21.134  0.00  0.00    -0.000 C 
ATOM      7  C   UNL     1      34.940 -18.900 -21.389  0.00  0.00    -0.000 C 
ENDBRANCH   1   2
BRANCH   1   8
ATOM      8  O   UNL     1      34.895 -16.870 -25.836  0.00  0.00    -0.382 OA
ATOM      9  H   UNL     1      35.828 -16.974 -26.081  0.00  0.00    +0.211 HD
ENDBRANCH   1   8
BRANCH   1  10
ATOM     10  C   UNL     1      33.520 -15.242 -24.652  0.00  0.00    -0.030 C 
ATOM     11  C   UNL     1      33.000 -14.996 -26.069  0.00  0.00    -0.021 C 
BRANCH  10  12
ATOM     12  N   UNL     1      33.796 -13.938 -24.037  0.00  0.00    +0.385 N 
ATOM     13  C   UNL     1      32.712 -13.552 -23.150  0.00  0.00    -0.105 C 
ATOM     14  H   UNL     1      33.896 -13.235 -24.770  0.00  0.00    -0.084 HD
ATOM     15  H   UNL     1      34.658 -14.005 -23.495  0.00  0.00    -0.084 HD
ENDBRANCH  10  12
ENDBRANCH   1  10
TORSDOF 4
ENDMDL
MODEL 7
REMARK VINA RESULT:      -6.3      2.448      4.779
REMARK  Name = 9294
REMARK  4 active torsions:
REMARK  status: ('A' for Active; 'I' for Inactive)
REMARK    1  A    between atoms: C_1  and  C_2
REMARK    2  A    between atoms: C_1  and  O_8
REMARK    3  A    between atoms: C_1  and  C_10
REMARK    4  A    between atoms: C_10  and  N_12
REMARK                            x       y       z     vdW  Elec       q    Type
REMARK                         _______ _______ _______ _____ _____    ______ ____
ROOT
ATOM      1  C   UNL     1      33.807 -19.820 -20.489  0.00  0.00    +0.113 C 
ENDROOT
BRANCH   1   2
ATOM      2  C   UNL     1      34.311 -18.873 -21.556  0.00  0.00    +0.002 C 
ATOM      3  C   UNL     1      34.637 -19.376 -22.804  0.00  0.00    -0.002 C 
ATOM      4  C   UNL     1      34.436 -17.526 -21.262  0.00  0.00    -0.002 C 
ATOM      5  C   UNL     1      35.101 -18.503 -23.789  0.00  0.00    -0.000 C 
ATOM      6  C   UNL     1      34.900 -16.655 -22.247  0.00  0.00    -0.000 C 
ATOM      7  C   UNL     1      35.233 -17.144 -23.511  0.00  0.00    -0.000 C 
ENDBRANCH   1   2
BRANCH   1   8
ATOM      8  O   UNL     1      32.531 -20.294 -20.927  0.00  0.00    -0.382 OA
ATOM      9  H   UNL     1      32.017 -20.595 -20.162  0.00  0.00    +0.211 HD
ENDBRANCH   1   8
BRANCH   1  10
ATOM     10  C   UNL     1      34.750 -21.014 -20.221  0.00  0.00    -0.030 C 
ATOM     11  C   UNL     1      34.137 -22.048 -19.275  0.00  0.00    -0.021 C 
BRANCH  10  12
ATOM     12  N   UNL     1      35.998 -20.531 -19.619  0.00  0.00    +0.385 N 
ATOM     13  C   UNL     1      36.511 -21.496 -18.662  0.00  0.00    -0.105 C 
ATOM     14  H   UNL     1      35.820 -19.647 -19.141  0.00  0.00    -0.084 HD
ATOM     15  H   UNL     1      36.691 -20.398 -20.357  0.00  0.00    -0.084 HD
ENDBRANCH  10  12
ENDBRANCH   1  10
TORSDOF 4
ENDMDL
MODEL 8
REMARK VINA RESULT:      -6.2      2.308      4.766
REMARK  Name = 9294
REMARK  4 active torsions:
REMARK  status: ('A' for Active; 'I' for Inactive)
REMARK    1  A    between atoms: C_1  and  C_2
REMARK    2  A    between atoms: C_1  and  O_8
REMARK    3  A    between atoms: C_1  and  C_10
REMARK    4  A    between atoms: C_10  and  N_12
REMARK                            x       y       z     vdW  Elec       q    Type
REMARK                         _______ _______ _______ _____ _____    ______ ____
ROOT
ATOM      1  C   UNL     1      35.118 -16.621 -21.866  0.00  0.00    +0.113 C 
ENDROOT
BRANCH   1   2
ATOM      2  C   UNL     1      34.107 -15.495 -21.840  0.00  0.00    +0.002 C 
ATOM      3  C   UNL     1      33.564 -15.103 -20.629  0.00  0.00    -0.002 C 
ATOM      4  C   UNL     1      33.746 -14.882 -23.028  0.00  0.00    -0.002 C 
ATOM      5  C   UNL     1      32.632 -14.065 -20.605  0.00  0.00    -0.000 C 
ATOM      6  C   UNL     1      32.815 -13.845 -23.003  0.00  0.00    -0.000 C 
ATOM      7  C   UNL     1      32.258 -13.436 -21.791  0.00  0.00    -0.000 C 
ENDBRANCH   1   2
BRANCH   1   8
ATOM      8  O   UNL     1      35.356 -16.992 -20.505  0.00  0.00    -0.382 OA
ATOM      9  H   UNL     1      34.537 -17.333 -20.114  0.00  0.00    +0.211 HD
ENDBRANCH   1   8
BRANCH   1  10
ATOM     10  C   UNL     1      34.656 -17.853 -22.676  0.00  0.00    -0.030 C 
ATOM     11  C   UNL     1      34.807 -19.160 -21.897  0.00  0.00    -0.021 C 
BRANCH  10  12
ATOM     12  N   UNL     1      35.452 -17.962 -23.904  0.00  0.00    +0.385 N 
ATOM     13  C   UNL     1      34.602 -17.854 -25.076  0.00  0.00    -0.105 C 
ATOM     14  H   UNL     1      35.928 -18.865 -23.917  0.00  0.00    -0.084 HD
ATOM     15  H   UNL     1      36.136 -17.205 -23.921  0.00  0.00    -0.084 HD
ENDBRANCH  10  12
ENDBRANCH   1  10
TORSDOF 4
ENDMDL
MODEL 9
REMARK VINA RESULT:      -6.1      1.821      4.706
REMARK  Name = 9294
REMARK  4 active torsions:
REMARK  status: ('A' for Active; 'I' for Inactive)
REMARK    1  A    between atoms: C_1  and  C_2
REMARK    2  A    between atoms: C_1  and  O_8
REMARK    3  A    between atoms: C_1  and  C_10
REMARK    4  A    between atoms: C_10  and  N_12
REMARK                            x       y       z     vdW  Elec       q    Type
REMARK                         _______ _______ _______ _____ _____    ______ ____
ROOT
ATOM      1  C   UNL     1      35.387 -18.277 -22.288  0.00  0.00    +0.113 C 
ENDROOT
BRANCH   1   2
ATOM      2  C   UNL     1      34.965 -16.826 -22.215  0.00  0.00    +0.002 C 
ATOM      3  C   UNL     1      34.811 -16.108 -23.388  0.00  0.00    -0.002 C 
ATOM      4  C   UNL     1      34.742 -16.248 -20.977  0.00  0.00    -0.002 C 
ATOM      5  C   UNL     1      34.421 -14.770 -23.321  0.00  0.00    -0.000 C 
ATOM      6  C   UNL     1      34.353 -14.911 -20.911  0.00  0.00    -0.000 C 
ATOM      7  C   UNL     1      34.192 -14.171 -22.084  0.00  0.00    -0.000 C 
ENDBRANCH   1   2
BRANCH   1   8
ATOM      8  O   UNL     1      36.812 -18.286 -22.413  0.00  0.00    -0.382 OA
ATOM      9  H   UNL     1      37.119 -19.195 -22.553  0.00  0.00    +0.211 HD
ENDBRANCH   1   8
BRANCH   1  10
ATOM     10  C   UNL     1      34.961 -19.111 -21.059  0.00  0.00    -0.030 C 
ATOM     11  C   UNL     1      36.072 -20.037 -20.561  0.00  0.00    -0.021 C 
BRANCH  10  12
ATOM     12  N   UNL     1      33.800 -19.941 -21.406  0.00  0.00    +0.385 N 
ATOM     13  C   UNL     1      33.051 -20.295 -20.214  0.00  0.00    -0.105 C 
ATOM     14  H   UNL     1      34.122 -20.793 -21.866  0.00  0.00    -0.084 HD
ATOM     15  H   UNL     1      33.193 -19.412 -22.033  0.00  0.00    -0.084 HD
ENDBRANCH  10  12
ENDBRANCH   1  10
TORSDOF 4
ENDMDL
