MODEL 1
REMARK VINA RESULT:      -9.5      0.000      0.000
REMARK  Name = 20055236
REMARK  2 active torsions:
REMARK  status: ('A' for Active; 'I' for Inactive)
REMARK    1  A    between atoms: C_7  and  O_20
REMARK    2  A    between atoms: C_18  and  O_22
REMARK                            x       y       z     vdW  Elec       q    Type
REMARK                         _______ _______ _______ _____ _____    ______ ____
ROOT
ATOM      1  O   UNL     1      39.759 -25.568 -13.632  0.00  0.00    -0.288 OA
ATOM      2  C   UNL     1      32.692 -23.616 -15.867  0.00  0.00    +0.002 C 
ATOM      3  C   UNL     1      31.608 -23.721 -14.775  0.00  0.00    +0.025 C 
ATOM      4  C   UNL     1      34.064 -23.253 -15.297  0.00  0.00    +0.001 C 
ATOM      5  C   UNL     1      34.500 -24.361 -14.294  0.00  0.00    +0.004 C 
ATOM      6  C   UNL     1      32.003 -24.855 -13.821  0.00  0.00    +0.002 C 
ATOM      7  C   UNL     1      30.388 -24.024 -15.669  0.00  0.00    +0.110 C 
ATOM      8  C   UNL     1      33.407 -24.638 -13.229  0.00  0.00    +0.000 C 
ATOM      9  C   UNL     1      32.055 -22.709 -16.917  0.00  0.00    +0.003 C 
ATOM     10  C   UNL     1      35.887 -24.029 -13.659  0.00  0.00    +0.022 C 
ATOM     11  C   UNL     1      35.121 -23.103 -16.396  0.00  0.00    +0.004 C 
ATOM     12  C   UNL     1      30.560 -23.080 -16.874  0.00  0.00    +0.029 C 
ATOM     13  C   UNL     1      31.384 -22.421 -13.962  0.00  0.00    +0.002 C 
ATOM     14  C   UNL     1      36.471 -22.728 -15.796  0.00  0.00    +0.025 C 
ATOM     15  C   UNL     1      36.925 -23.704 -14.733  0.00  0.00    -0.008 C 
ATOM     16  C   UNL     1      36.342 -25.181 -12.742  0.00  0.00    +0.012 C 
ATOM     17  C   UNL     1      37.801 -25.068 -12.351  0.00  0.00    +0.073 C 
ATOM     18  C   UNL     1      38.178 -24.200 -14.734  0.00  0.00    +0.160 C 
ATOM     19  C   UNL     1      38.659 -25.020 -13.588  0.00  0.00    +0.206 C 
ENDROOT
BRANCH   7  20
ATOM     20  O   UNL     1      29.141 -23.849 -15.023  0.00  0.00    -0.384 OA
ATOM     21  H   UNL     1      28.705 -23.055 -15.369  0.00  0.00    +0.210 HD
ENDBRANCH   7  20
BRANCH  18  22
ATOM     22  O   UNL     1      39.082 -23.919 -15.736  0.00  0.00    -0.503 OA
ATOM     23  H   UNL     1      39.238 -23.031 -15.991  0.00  0.00    +0.292 HD
ENDBRANCH  18  22
TORSDOF 2
ENDMDL
MODEL 2
REMARK VINA RESULT:      -9.5      3.406      6.105
REMARK  Name = 20055236
REMARK  2 active torsions:
REMARK  status: ('A' for Active; 'I' for Inactive)
REMARK    1  A    between atoms: C_7  and  O_20
REMARK    2  A    between atoms: C_18  and  O_22
REMARK                            x       y       z     vdW  Elec       q    Type
REMARK                         _______ _______ _______ _____ _____    ______ ____
ROOT
ATOM      1  O   UNL     1      33.914 -19.477 -21.271  0.00  0.00    -0.288 OA
ATOM      2  C   UNL     1      36.054 -22.978 -14.797  0.00  0.00    +0.002 C 
ATOM      3  C   UNL     1      35.084 -24.064 -14.289  0.00  0.00    +0.025 C 
ATOM      4  C   UNL     1      36.059 -22.864 -16.322  0.00  0.00    +0.001 C 
ATOM      5  C   UNL     1      34.626 -22.490 -16.802  0.00  0.00    +0.004 C 
ATOM      6  C   UNL     1      33.663 -23.664 -14.706  0.00  0.00    +0.002 C 
ATOM      7  C   UNL     1      35.368 -23.958 -12.777  0.00  0.00    +0.110 C 
ATOM      8  C   UNL     1      33.554 -23.451 -16.226  0.00  0.00    +0.000 C 
ATOM      9  C   UNL     1      37.357 -23.293 -14.067  0.00  0.00    +0.003 C 
ATOM     10  C   UNL     1      34.565 -22.385 -18.358  0.00  0.00    +0.022 C 
ATOM     11  C   UNL     1      37.063 -21.817 -16.817  0.00  0.00    +0.004 C 
ATOM     12  C   UNL     1      36.899 -23.810 -12.690  0.00  0.00    +0.029 C 
ATOM     13  C   UNL     1      35.388 -25.492 -14.806  0.00  0.00    +0.002 C 
ATOM     14  C   UNL     1      37.052 -21.740 -18.339  0.00  0.00    +0.025 C 
ATOM     15  C   UNL     1      35.670 -21.477 -18.897  0.00  0.00    -0.008 C 
ATOM     16  C   UNL     1      33.165 -21.923 -18.806  0.00  0.00    +0.012 C 
ATOM     17  C   UNL     1      33.132 -21.500 -20.260  0.00  0.00    +0.073 C 
ATOM     18  C   UNL     1      35.468 -20.532 -19.836  0.00  0.00    +0.160 C 
ATOM     19  C   UNL     1      34.139 -20.406 -20.497  0.00  0.00    +0.206 C 
ENDROOT
BRANCH   7  20
ATOM     20  O   UNL     1      34.890 -25.055 -12.020  0.00  0.00    -0.384 OA
ATOM     21  H   UNL     1      34.225 -25.538 -12.535  0.00  0.00    +0.210 HD
ENDBRANCH   7  20
BRANCH  18  22
ATOM     22  O   UNL     1      36.476 -19.702 -20.277  0.00  0.00    -0.503 OA
ATOM     23  H   UNL     1      36.839 -19.818 -21.133  0.00  0.00    +0.292 HD
ENDBRANCH  18  22
TORSDOF 2
ENDMDL
MODEL 3
REMARK VINA RESULT:      -9.0      1.482      6.608
REMARK  Name = 20055236
REMARK  2 active torsions:
REMARK  status: ('A' for Active; 'I' for Inactive)
REMARK    1  A    between atoms: C_7  and  O_20
REMARK    2  A    between atoms: C_18  and  O_22
REMARK                            x       y       z     vdW  Elec       q    Type
REMARK                         _______ _______ _______ _____ _____    ______ ____
ROOT
ATOM      1  O   UNL     1      27.574 -23.113 -15.229  0.00  0.00    -0.288 OA
ATOM      2  C   UNL     1      35.238 -23.068 -15.276  0.00  0.00    +0.002 C 
ATOM      3  C   UNL     1      35.904 -24.061 -14.302  0.00  0.00    +0.025 C 
ATOM      4  C   UNL     1      33.899 -23.580 -15.809  0.00  0.00    +0.001 C 
ATOM      5  C   UNL     1      32.931 -23.797 -14.610  0.00  0.00    +0.004 C 
ATOM      6  C   UNL     1      34.981 -24.227 -13.089  0.00  0.00    +0.002 C 
ATOM      7  C   UNL     1      37.210 -23.290 -14.021  0.00  0.00    +0.110 C 
ATOM      8  C   UNL     1      33.569 -24.678 -13.504  0.00  0.00    +0.000 C 
ATOM      9  C   UNL     1      36.354 -22.730 -16.262  0.00  0.00    +0.003 C 
ATOM     10  C   UNL     1      31.552 -24.345 -15.093  0.00  0.00    +0.022 C 
ATOM     11  C   UNL     1      33.271 -22.608 -16.814  0.00  0.00    +0.004 C 
ATOM     12  C   UNL     1      37.631 -22.746 -15.400  0.00  0.00    +0.029 C 
ATOM     13  C   UNL     1      36.209 -25.453 -14.910  0.00  0.00    +0.002 C 
ATOM     14  C   UNL     1      31.947 -23.154 -17.335  0.00  0.00    +0.025 C 
ATOM     15  C   UNL     1      30.978 -23.488 -16.221  0.00  0.00    -0.008 C 
ATOM     16  C   UNL     1      30.580 -24.463 -13.903  0.00  0.00    +0.012 C 
ATOM     17  C   UNL     1      29.147 -24.683 -14.346  0.00  0.00    +0.073 C 
ATOM     18  C   UNL     1      29.695 -23.082 -16.271  0.00  0.00    +0.160 C 
ATOM     19  C   UNL     1      28.717 -23.565 -15.257  0.00  0.00    +0.206 C 
ENDROOT
BRANCH   7  20
ATOM     20  O   UNL     1      38.224 -24.071 -13.418  0.00  0.00    -0.384 OA
ATOM     21  H   UNL     1      38.983 -23.506 -13.203  0.00  0.00    +0.210 HD
ENDBRANCH   7  20
BRANCH  18  22
ATOM     22  O   UNL     1      29.214 -22.278 -17.283  0.00  0.00    -0.503 OA
ATOM     23  H   UNL     1      28.463 -21.737 -17.135  0.00  0.00    +0.292 HD
ENDBRANCH  18  22
TORSDOF 2
ENDMDL
MODEL 4
REMARK VINA RESULT:      -8.9     13.821     15.981
REMARK  Name = 20055236
REMARK  2 active torsions:
REMARK  status: ('A' for Active; 'I' for Inactive)
REMARK    1  A    between atoms: C_7  and  O_20
REMARK    2  A    between atoms: C_18  and  O_22
REMARK                            x       y       z     vdW  Elec       q    Type
REMARK                         _______ _______ _______ _____ _____    ______ ____
ROOT
ATOM      1  O   UNL     1      33.958 -16.116 -22.129  0.00  0.00    -0.288 OA
ATOM      2  C   UNL     1      32.340  -8.648 -21.529  0.00  0.00    +0.002 C 
ATOM      3  C   UNL     1      32.265  -7.885 -22.867  0.00  0.00    +0.025 C 
ATOM      4  C   UNL     1      31.900 -10.106 -21.662  0.00  0.00    +0.001 C 
ATOM      5  C   UNL     1      32.838 -10.824 -22.675  0.00  0.00    +0.004 C 
ATOM      6  C   UNL     1      33.238  -8.551 -23.849  0.00  0.00    +0.002 C 
ATOM      7  C   UNL     1      32.697  -6.488 -22.378  0.00  0.00    +0.110 C 
ATOM      8  C   UNL     1      32.938 -10.052 -24.016  0.00  0.00    +0.000 C 
ATOM      9  C   UNL     1      31.605  -7.732 -20.554  0.00  0.00    +0.003 C 
ATOM     10  C   UNL     1      32.419 -12.315 -22.870  0.00  0.00    +0.022 C 
ATOM     11  C   UNL     1      31.931 -10.840 -20.316  0.00  0.00    +0.004 C 
ATOM     12  C   UNL     1      31.955  -6.312 -21.039  0.00  0.00    +0.029 C 
ATOM     13  C   UNL     1      30.852  -7.832 -23.501  0.00  0.00    +0.002 C 
ATOM     14  C   UNL     1      31.474 -12.285 -20.482  0.00  0.00    +0.025 C 
ATOM     15  C   UNL     1      32.274 -13.031 -21.528  0.00  0.00    -0.008 C 
ATOM     16  C   UNL     1      33.416 -13.030 -23.804  0.00  0.00    +0.012 C 
ATOM     17  C   UNL     1      33.251 -14.536 -23.781  0.00  0.00    +0.073 C 
ATOM     18  C   UNL     1      32.771 -14.258 -21.278  0.00  0.00    +0.160 C 
ATOM     19  C   UNL     1      33.404 -15.046 -22.372  0.00  0.00    +0.206 C 
ENDROOT
BRANCH   7  20
ATOM     20  O   UNL     1      32.416  -5.443 -23.290  0.00  0.00    -0.384 OA
ATOM     21  H   UNL     1      31.462  -5.268 -23.298  0.00  0.00    +0.210 HD
ENDBRANCH   7  20
BRANCH  18  22
ATOM     22  O   UNL     1      32.657 -14.864 -20.046  0.00  0.00    -0.503 OA
ATOM     23  H   UNL     1      32.259 -14.404 -19.332  0.00  0.00    +0.292 HD
ENDBRANCH  18  22
TORSDOF 2
ENDMDL
MODEL 5
REMARK VINA RESULT:      -8.9     11.293     13.444
REMARK  Name = 20055236
REMARK  2 active torsions:
REMARK  status: ('A' for Active; 'I' for Inactive)
REMARK    1  A    between atoms: C_7  and  O_20
REMARK    2  A    between atoms: C_18  and  O_22
REMARK                            x       y       z     vdW  Elec       q    Type
REMARK                         _______ _______ _______ _____ _____    ______ ____
ROOT
ATOM      1  O   UNL     1      35.728 -18.254 -23.395  0.00  0.00    -0.288 OA
ATOM      2  C   UNL     1      32.410 -11.841 -20.824  0.00  0.00    +0.002 C 
ATOM      3  C   UNL     1      32.011 -10.828 -21.916  0.00  0.00    +0.025 C 
ATOM      4  C   UNL     1      32.328 -13.288 -21.311  0.00  0.00    +0.001 C 
ATOM      5  C   UNL     1      33.300 -13.471 -22.512  0.00  0.00    +0.004 C 
ATOM      6  C   UNL     1      33.007 -10.961 -23.074  0.00  0.00    +0.002 C 
ATOM      7  C   UNL     1      32.138  -9.525 -21.100  0.00  0.00    +0.110 C 
ATOM      8  C   UNL     1      33.067 -12.402 -23.611  0.00  0.00    +0.000 C 
ATOM      9  C   UNL     1      31.581 -11.410 -19.617  0.00  0.00    +0.003 C 
ATOM     10  C   UNL     1      33.239 -14.928 -23.068  0.00  0.00    +0.022 C 
ATOM     11  C   UNL     1      32.678 -14.288 -20.203  0.00  0.00    +0.004 C 
ATOM     12  C   UNL     1      31.522  -9.875 -19.732  0.00  0.00    +0.029 C 
ATOM     13  C   UNL     1      30.569 -10.998 -22.457  0.00  0.00    +0.002 C 
ATOM     14  C   UNL     1      32.572 -15.719 -20.717  0.00  0.00    +0.025 C 
ATOM     15  C   UNL     1      33.415 -15.956 -21.951  0.00  0.00    -0.008 C 
ATOM     16  C   UNL     1      34.276 -15.112 -24.194  0.00  0.00    +0.012 C 
ATOM     17  C   UNL     1      34.487 -16.568 -24.554  0.00  0.00    +0.073 C 
ATOM     18  C   UNL     1      34.220 -17.032 -22.047  0.00  0.00    +0.160 C 
ATOM     19  C   UNL     1      34.906 -17.341 -23.332  0.00  0.00    +0.206 C 
ENDROOT
BRANCH   7  20
ATOM     20  O   UNL     1      31.516  -8.404 -21.700  0.00  0.00    -0.384 OA
ATOM     21  H   UNL     1      31.416  -8.560 -22.652  0.00  0.00    +0.210 HD
ENDBRANCH   7  20
BRANCH  18  22
ATOM     22  O   UNL     1      34.387 -17.923 -21.008  0.00  0.00    -0.503 OA
ATOM     23  H   UNL     1      34.862 -18.720 -21.146  0.00  0.00    +0.292 HD
ENDBRANCH  18  22
TORSDOF 2
ENDMDL
MODEL 6
REMARK VINA RESULT:      -8.8     10.892     13.443
REMARK  Name = 20055236
REMARK  2 active torsions:
REMARK  status: ('A' for Active; 'I' for Inactive)
REMARK    1  A    between atoms: C_7  and  O_20
REMARK    2  A    between atoms: C_18  and  O_22
REMARK                            x       y       z     vdW  Elec       q    Type
REMARK                         _______ _______ _______ _____ _____    ______ ____
ROOT
ATOM      1  O   UNL     1      31.722  -8.956 -21.686  0.00  0.00    -0.288 OA
ATOM      2  C   UNL     1      34.770 -15.951 -22.407  0.00  0.00    +0.002 C 
ATOM      3  C   UNL     1      34.391 -16.948 -21.293  0.00  0.00    +0.025 C 
ATOM      4  C   UNL     1      33.658 -14.940 -22.690  0.00  0.00    +0.001 C 
ATOM      5  C   UNL     1      33.378 -14.125 -21.393  0.00  0.00    +0.004 C 
ATOM      6  C   UNL     1      34.178 -16.154 -19.998  0.00  0.00    +0.002 C 
ATOM      7  C   UNL     1      35.657 -17.828 -21.310  0.00  0.00    +0.110 C 
ATOM      8  C   UNL     1      33.121 -15.049 -20.175  0.00  0.00    +0.000 C 
ATOM      9  C   UNL     1      35.267 -16.850 -23.537  0.00  0.00    +0.003 C 
ATOM     10  C   UNL     1      32.231 -13.091 -21.616  0.00  0.00    +0.022 C 
ATOM     11  C   UNL     1      34.025 -13.987 -23.833  0.00  0.00    +0.004 C 
ATOM     12  C   UNL     1      35.967 -18.013 -22.809  0.00  0.00    +0.029 C 
ATOM     13  C   UNL     1      33.129 -17.796 -21.588  0.00  0.00    +0.002 C 
ATOM     14  C   UNL     1      32.892 -13.002 -24.097  0.00  0.00    +0.025 C 
ATOM     15  C   UNL     1      32.488 -12.236 -22.857  0.00  0.00    -0.008 C 
ATOM     16  C   UNL     1      32.035 -12.233 -20.351  0.00  0.00    +0.012 C 
ATOM     17  C   UNL     1      31.167 -11.017 -20.605  0.00  0.00    +0.073 C 
ATOM     18  C   UNL     1      32.329 -10.898 -22.887  0.00  0.00    +0.160 C 
ATOM     19  C   UNL     1      31.765 -10.184 -21.708  0.00  0.00    +0.206 C 
ENDROOT
BRANCH   7  20
ATOM     20  O   UNL     1      35.513 -19.063 -20.634  0.00  0.00    -0.384 OA
ATOM     21  H   UNL     1      36.332 -19.268 -20.157  0.00  0.00    +0.210 HD
ENDBRANCH   7  20
BRANCH  18  22
ATOM     22  O   UNL     1      32.604 -10.148 -24.011  0.00  0.00    -0.503 OA
ATOM     23  H   UNL     1      32.063 -10.228 -24.772  0.00  0.00    +0.292 HD
ENDBRANCH  18  22
TORSDOF 2
ENDMDL
MODEL 7
REMARK VINA RESULT:      -8.6     10.646     13.091
REMARK  Name = 20055236
REMARK  2 active torsions:
REMARK  status: ('A' for Active; 'I' for Inactive)
REMARK    1  A    between atoms: C_7  and  O_20
REMARK    2  A    between atoms: C_18  and  O_22
REMARK                            x       y       z     vdW  Elec       q    Type
REMARK                         _______ _______ _______ _____ _____    ______ ____
ROOT
ATOM      1  O   UNL     1      33.885 -10.898 -25.812  0.00  0.00    -0.288 OA
ATOM      2  C   UNL     1      34.980 -17.948 -23.011  0.00  0.00    +0.002 C 
ATOM      3  C   UNL     1      34.748 -18.092 -21.494  0.00  0.00    +0.025 C 
ATOM      4  C   UNL     1      34.082 -16.883 -23.642  0.00  0.00    +0.001 C 
ATOM      5  C   UNL     1      34.390 -15.509 -22.977  0.00  0.00    +0.004 C 
ATOM      6  C   UNL     1      35.113 -16.759 -20.829  0.00  0.00    +0.002 C 
ATOM      7  C   UNL     1      35.727 -19.248 -21.205  0.00  0.00    +0.110 C 
ATOM      8  C   UNL     1      34.318 -15.586 -21.430  0.00  0.00    +0.000 C 
ATOM      9  C   UNL     1      34.905 -19.385 -23.523  0.00  0.00    +0.003 C 
ATOM     10  C   UNL     1      33.482 -14.385 -23.566  0.00  0.00    +0.022 C 
ATOM     11  C   UNL     1      34.285 -16.784 -25.158  0.00  0.00    +0.004 C 
ATOM     12  C   UNL     1      35.523 -20.219 -22.384  0.00  0.00    +0.029 C 
ATOM     13  C   UNL     1      33.303 -18.485 -21.096  0.00  0.00    +0.002 C 
ATOM     14  C   UNL     1      33.366 -15.724 -25.755  0.00  0.00    +0.025 C 
ATOM     15  C   UNL     1      33.532 -14.373 -25.093  0.00  0.00    -0.008 C 
ATOM     16  C   UNL     1      33.868 -13.019 -22.963  0.00  0.00    +0.012 C 
ATOM     17  C   UNL     1      33.250 -11.859 -23.716  0.00  0.00    +0.073 C 
ATOM     18  C   UNL     1      33.665 -13.251 -25.827  0.00  0.00    +0.160 C 
ATOM     19  C   UNL     1      33.652 -11.917 -25.165  0.00  0.00    +0.206 C 
ENDROOT
BRANCH   7  20
ATOM     20  O   UNL     1      35.529 -19.875 -19.951  0.00  0.00    -0.384 OA
ATOM     21  H   UNL     1      36.243 -20.513 -19.792  0.00  0.00    +0.210 HD
ENDBRANCH   7  20
BRANCH  18  22
ATOM     22  O   UNL     1      33.744 -13.275 -27.204  0.00  0.00    -0.503 OA
ATOM     23  H   UNL     1      34.437 -13.745 -27.626  0.00  0.00    +0.292 HD
ENDBRANCH  18  22
TORSDOF 2
ENDMDL
MODEL 8
REMARK VINA RESULT:      -8.3     10.322     13.165
REMARK  Name = 20055236
REMARK  2 active torsions:
REMARK  status: ('A' for Active; 'I' for Inactive)
REMARK    1  A    between atoms: C_7  and  O_20
REMARK    2  A    between atoms: C_18  and  O_22
REMARK                            x       y       z     vdW  Elec       q    Type
REMARK                         _______ _______ _______ _____ _____    ______ ____
ROOT
ATOM      1  O   UNL     1      31.135 -10.127 -22.658  0.00  0.00    -0.288 OA
ATOM      2  C   UNL     1      33.626 -17.349 -22.045  0.00  0.00    +0.002 C 
ATOM      3  C   UNL     1      34.757 -17.736 -23.019  0.00  0.00    +0.025 C 
ATOM      4  C   UNL     1      33.680 -15.876 -21.640  0.00  0.00    +0.001 C 
ATOM      5  C   UNL     1      33.534 -14.998 -22.917  0.00  0.00    +0.004 C 
ATOM      6  C   UNL     1      34.577 -16.919 -24.304  0.00  0.00    +0.002 C 
ATOM      7  C   UNL     1      34.454 -19.241 -23.162  0.00  0.00    +0.110 C 
ATOM      8  C   UNL     1      34.547 -15.407 -24.018  0.00  0.00    +0.000 C 
ATOM      9  C   UNL     1      33.702 -18.424 -20.963  0.00  0.00    +0.003 C 
ATOM     10  C   UNL     1      33.608 -13.479 -22.566  0.00  0.00    +0.022 C 
ATOM     11  C   UNL     1      32.582 -15.515 -20.634  0.00  0.00    +0.004 C 
ATOM     12  C   UNL     1      34.116 -19.696 -21.729  0.00  0.00    +0.029 C 
ATOM     13  C   UNL     1      36.187 -17.515 -22.466  0.00  0.00    +0.002 C 
ATOM     14  C   UNL     1      32.674 -14.045 -20.242  0.00  0.00    +0.025 C 
ATOM     15  C   UNL     1      32.640 -13.121 -21.440  0.00  0.00    -0.008 C 
ATOM     16  C   UNL     1      33.367 -12.629 -23.830  0.00  0.00    +0.012 C 
ATOM     17  C   UNL     1      33.113 -11.171 -23.506  0.00  0.00    +0.073 C 
ATOM     18  C   UNL     1      31.834 -12.042 -21.462  0.00  0.00    +0.160 C 
ATOM     19  C   UNL     1      31.940 -11.052 -22.570  0.00  0.00    +0.206 C 
ENDROOT
BRANCH   7  20
ATOM     20  O   UNL     1      35.510 -19.993 -23.730  0.00  0.00    -0.384 OA
ATOM     21  H   UNL     1      35.730 -19.634 -24.603  0.00  0.00    +0.210 HD
ENDBRANCH   7  20
BRANCH  18  22
ATOM     22  O   UNL     1      30.943 -11.764 -20.448  0.00  0.00    -0.503 OA
ATOM     23  H   UNL     1      31.215 -11.250 -19.712  0.00  0.00    +0.292 HD
ENDBRANCH  18  22
TORSDOF 2
ENDMDL
MODEL 9
REMARK VINA RESULT:      -8.3      1.180      6.974
REMARK  Name = 20055236
REMARK  2 active torsions:
REMARK  status: ('A' for Active; 'I' for Inactive)
REMARK    1  A    between atoms: C_7  and  O_20
REMARK    2  A    between atoms: C_18  and  O_22
REMARK                            x       y       z     vdW  Elec       q    Type
REMARK                         _______ _______ _______ _____ _____    ______ ____
ROOT
ATOM      1  O   UNL     1      27.875 -24.026 -16.558  0.00  0.00    -0.288 OA
ATOM      2  C   UNL     1      35.238 -24.756 -14.558  0.00  0.00    +0.002 C 
ATOM      3  C   UNL     1      36.187 -23.699 -15.158  0.00  0.00    +0.025 C 
ATOM      4  C   UNL     1      33.832 -24.208 -14.311  0.00  0.00    +0.001 C 
ATOM      5  C   UNL     1      33.231 -23.739 -15.668  0.00  0.00    +0.004 C 
ATOM      6  C   UNL     1      35.630 -23.282 -16.525  0.00  0.00    +0.002 C 
ATOM      7  C   UNL     1      37.482 -24.535 -15.215  0.00  0.00    +0.110 C 
ATOM      8  C   UNL     1      34.182 -22.771 -16.418  0.00  0.00    +0.000 C 
ATOM      9  C   UNL     1      36.034 -25.327 -13.387  0.00  0.00    +0.003 C 
ATOM     10  C   UNL     1      31.801 -23.145 -15.473  0.00  0.00    +0.022 C 
ATOM     11  C   UNL     1      32.913 -25.253 -13.669  0.00  0.00    +0.004 C 
ATOM     12  C   UNL     1      37.494 -25.303 -13.879  0.00  0.00    +0.029 C 
ATOM     13  C   UNL     1      36.386 -22.439 -14.279  0.00  0.00    +0.002 C 
ATOM     14  C   UNL     1      31.526 -24.670 -13.424  0.00  0.00    +0.025 C 
ATOM     15  C   UNL     1      30.907 -24.098 -14.681  0.00  0.00    -0.008 C 
ATOM     16  C   UNL     1      31.188 -22.774 -16.837  0.00  0.00    +0.012 C 
ATOM     17  C   UNL     1      29.702 -22.493 -16.747  0.00  0.00    +0.073 C 
ATOM     18  C   UNL     1      29.638 -24.391 -15.026  0.00  0.00    +0.160 C 
ATOM     19  C   UNL     1      28.990 -23.686 -16.167  0.00  0.00    +0.206 C 
ENDROOT
BRANCH   7  20
ATOM     20  O   UNL     1      38.657 -23.769 -15.405  0.00  0.00    -0.384 OA
ATOM     21  H   UNL     1      39.434 -24.347 -15.339  0.00  0.00    +0.210 HD
ENDBRANCH   7  20
BRANCH  18  22
ATOM     22  O   UNL     1      28.866 -25.284 -14.313  0.00  0.00    -0.503 OA
ATOM     23  H   UNL     1      29.043 -25.436 -13.405  0.00  0.00    +0.292 HD
ENDBRANCH  18  22
TORSDOF 2
ENDMDL
