MODEL 1
REMARK VINA RESULT:      -9.7      0.000      0.000
REMARK  Name = 5281881
REMARK  7 active torsions:
REMARK  status: ('A' for Active; 'I' for Inactive)
REMARK    1  A    between atoms: C_2  and  C_20
REMARK    2  A    between atoms: C_10  and  C_19
REMARK    3  A    between atoms: C_20  and  C_21
REMARK    4  A    between atoms: C_21  and  N_22
REMARK    5  A    between atoms: N_23  and  C_30
REMARK    6  A    between atoms: C_30  and  C_31
REMARK    7  A    between atoms: C_31  and  O_32
REMARK                            x       y       z     vdW  Elec       q    Type
REMARK                         _______ _______ _______ _____ _____    ______ ____
ROOT
ATOM      1  S   UNL     1      37.980 -22.643 -15.701  0.00  0.00    -0.087 S 
ATOM      2  C   UNL     1      33.975 -23.969 -14.947  0.00  0.00    -0.028 C 
ATOM      3  C   UNL     1      35.166 -23.943 -15.577  0.00  0.00    -0.003 C 
ATOM      4  C   UNL     1      35.374 -22.981 -16.692  0.00  0.00    +0.006 C 
ATOM      5  C   UNL     1      36.278 -24.781 -15.053  0.00  0.00    +0.006 C 
ATOM      6  C   UNL     1      36.625 -22.350 -16.834  0.00  0.00    +0.029 C 
ATOM      7  C   UNL     1      37.593 -24.277 -15.081  0.00  0.00    +0.029 C 
ATOM      8  C   UNL     1      34.371 -22.716 -17.641  0.00  0.00    +0.004 C 
ATOM      9  C   UNL     1      36.064 -26.085 -14.575  0.00  0.00    +0.000 C 
ATOM     10  C   UNL     1      34.594 -21.818 -18.686  0.00  0.00    +0.071 C 
ATOM     11  C   UNL     1      36.836 -21.444 -17.884  0.00  0.00    +0.006 C 
ATOM     12  C   UNL     1      38.652 -25.058 -14.595  0.00  0.00    +0.006 C 
ATOM     13  C   UNL     1      35.823 -21.179 -18.804  0.00  0.00    +0.004 C 
ATOM     14  C   UNL     1      37.127 -26.858 -14.100  0.00  0.00    +0.000 C 
ATOM     15  C   UNL     1      38.419 -26.342 -14.106  0.00  0.00    +0.001 C 
ENDROOT
BRANCH  10  19
ATOM     16  F   UNL     1      33.906 -20.744 -20.710  0.00  0.00    -0.166 F 
ATOM     17  F   UNL     1      33.007 -22.666 -20.262  0.00  0.00    -0.166 F 
ATOM     18  F   UNL     1      32.439 -20.909 -19.114  0.00  0.00    -0.166 F 
ATOM     19  C   UNL     1      33.511 -21.541 -19.673  0.00  0.00    +0.419 C 
ENDBRANCH  10  19
BRANCH   2  20
ATOM     20  C   UNL     1      32.788 -23.171 -15.384  0.00  0.00    +0.003 C 
BRANCH  20  21
ATOM     21  C   UNL     1      31.561 -24.065 -15.554  0.00  0.00    -0.073 C 
BRANCH  21  22
ATOM     22  N   UNL     1      30.395 -23.262 -15.917  0.00  0.00    +0.384 N 
ATOM     23  N   UNL     1      27.561 -22.692 -15.917  0.00  0.00    +0.386 N 
ATOM     24  C   UNL     1      29.460 -24.042 -16.738  0.00  0.00    -0.101 C 
ATOM     25  C   UNL     1      29.720 -22.750 -14.718  0.00  0.00    -0.101 C 
ATOM     26  C   UNL     1      28.235 -23.203 -17.117  0.00  0.00    -0.101 C 
ATOM     27  C   UNL     1      28.495 -21.912 -15.098  0.00  0.00    -0.101 C 
ATOM     28  H   UNL     1      30.719 -22.467 -16.467  0.00  0.00    -0.080 HD
ATOM     29  H   UNL     1      27.237 -23.487 -15.366  0.00  0.00    -0.080 HD
BRANCH  23  30
ATOM     30  C   UNL     1      26.394 -21.891 -16.280  0.00  0.00    -0.045 C 
BRANCH  30  31
ATOM     31  C   UNL     1      26.411 -21.557 -17.763  0.00  0.00    +0.115 C 
BRANCH  31  32
ATOM     32  O   UNL     1      25.964 -20.219 -17.937  0.00  0.00    -0.384 OA
ATOM     33  H   UNL     1      26.647 -19.707 -18.396  0.00  0.00    +0.210 HD
ENDBRANCH  31  32
ENDBRANCH  30  31
ENDBRANCH  23  30
ENDBRANCH  21  22
ENDBRANCH  20  21
ENDBRANCH   2  20
TORSDOF 7
ENDMDL
MODEL 2
REMARK VINA RESULT:      -9.3     13.428     16.646
REMARK  Name = 5281881
REMARK  7 active torsions:
REMARK  status: ('A' for Active; 'I' for Inactive)
REMARK    1  A    between atoms: C_2  and  C_20
REMARK    2  A    between atoms: C_10  and  C_19
REMARK    3  A    between atoms: C_20  and  C_21
REMARK    4  A    between atoms: C_21  and  N_22
REMARK    5  A    between atoms: N_23  and  C_30
REMARK    6  A    between atoms: C_30  and  C_31
REMARK    7  A    between atoms: C_31  and  O_32
REMARK                            x       y       z     vdW  Elec       q    Type
REMARK                         _______ _______ _______ _____ _____    ______ ____
ROOT
ATOM      1  S   UNL     1      32.211  -5.722 -20.794  0.00  0.00    -0.087 S 
ATOM      2  C   UNL     1      33.561  -8.164 -24.046  0.00  0.00    -0.028 C 
ATOM      3  C   UNL     1      32.655  -7.588 -23.232  0.00  0.00    -0.003 C 
ATOM      4  C   UNL     1      32.281  -8.273 -21.966  0.00  0.00    +0.006 C 
ATOM      5  C   UNL     1      32.157  -6.224 -23.556  0.00  0.00    +0.006 C 
ATOM      6  C   UNL     1      32.049  -7.505 -20.809  0.00  0.00    +0.029 C 
ATOM      7  C   UNL     1      31.916  -5.312 -22.511  0.00  0.00    +0.029 C 
ATOM      8  C   UNL     1      32.106  -9.667 -21.900  0.00  0.00    +0.004 C 
ATOM      9  C   UNL     1      31.873  -5.831 -24.875  0.00  0.00    +0.000 C 
ATOM     10  C   UNL     1      31.742 -10.286 -20.703  0.00  0.00    +0.071 C 
ATOM     11  C   UNL     1      31.690  -8.139 -19.610  0.00  0.00    +0.006 C 
ATOM     12  C   UNL     1      31.440  -4.024 -22.801  0.00  0.00    +0.006 C 
ATOM     13  C   UNL     1      31.540  -9.523 -19.558  0.00  0.00    +0.004 C 
ATOM     14  C   UNL     1      31.393  -4.549 -25.153  0.00  0.00    +0.000 C 
ATOM     15  C   UNL     1      31.183  -3.645 -24.117  0.00  0.00    +0.001 C 
ENDROOT
BRANCH  10  19
ATOM     16  F   UNL     1      32.385 -12.440 -21.521  0.00  0.00    -0.166 F 
ATOM     17  F   UNL     1      31.844 -12.305 -19.425  0.00  0.00    -0.166 F 
ATOM     18  F   UNL     1      30.305 -12.163 -20.953  0.00  0.00    -0.166 F 
ATOM     19  C   UNL     1      31.575 -11.767 -20.651  0.00  0.00    +0.419 C 
ENDBRANCH  10  19
BRANCH   2  20
ATOM     20  C   UNL     1      34.129  -9.529 -23.821  0.00  0.00    +0.003 C 
BRANCH  20  21
ATOM     21  C   UNL     1      34.977  -9.972 -25.013  0.00  0.00    -0.073 C 
BRANCH  21  22
ATOM     22  N   UNL     1      34.773 -11.394 -25.279  0.00  0.00    +0.384 N 
ATOM     23  N   UNL     1      33.119 -13.691 -25.868  0.00  0.00    +0.386 N 
ATOM     24  C   UNL     1      33.913 -11.998 -24.253  0.00  0.00    -0.101 C 
ATOM     25  C   UNL     1      34.197 -11.597 -26.615  0.00  0.00    -0.101 C 
ATOM     26  C   UNL     1      33.694 -13.489 -24.533  0.00  0.00    -0.101 C 
ATOM     27  C   UNL     1      33.979 -13.088 -26.893  0.00  0.00    -0.101 C 
ATOM     28  H   UNL     1      35.681 -11.854 -25.247  0.00  0.00    -0.080 HD
ATOM     29  H   UNL     1      32.209 -13.230 -25.901  0.00  0.00    -0.080 HD
BRANCH  23  30
ATOM     30  C   UNL     1      32.912 -15.113 -26.134  0.00  0.00    -0.045 C 
BRANCH  30  31
ATOM     31  C   UNL     1      33.723 -15.963 -25.169  0.00  0.00    +0.115 C 
BRANCH  31  32
ATOM     32  O   UNL     1      34.715 -16.669 -25.903  0.00  0.00    -0.384 OA
ATOM     33  H   UNL     1      35.456 -16.888 -25.318  0.00  0.00    +0.210 HD
ENDBRANCH  31  32
ENDBRANCH  30  31
ENDBRANCH  23  30
ENDBRANCH  21  22
ENDBRANCH  20  21
ENDBRANCH   2  20
TORSDOF 7
ENDMDL
MODEL 3
REMARK VINA RESULT:      -9.2      4.568      7.339
REMARK  Name = 5281881
REMARK  7 active torsions:
REMARK  status: ('A' for Active; 'I' for Inactive)
REMARK    1  A    between atoms: C_2  and  C_20
REMARK    2  A    between atoms: C_10  and  C_19
REMARK    3  A    between atoms: C_20  and  C_21
REMARK    4  A    between atoms: C_21  and  N_22
REMARK    5  A    between atoms: N_23  and  C_30
REMARK    6  A    between atoms: C_30  and  C_31
REMARK    7  A    between atoms: C_31  and  O_32
REMARK                            x       y       z     vdW  Elec       q    Type
REMARK                         _______ _______ _______ _____ _____    ______ ____
ROOT
ATOM      1  S   UNL     1      34.065 -23.899 -12.476  0.00  0.00    -0.087 S 
ATOM      2  C   UNL     1      35.354 -22.243 -16.212  0.00  0.00    -0.028 C 
ATOM      3  C   UNL     1      34.968 -23.217 -15.364  0.00  0.00    -0.003 C 
ATOM      4  C   UNL     1      35.992 -23.887 -14.519  0.00  0.00    +0.006 C 
ATOM      5  C   UNL     1      33.517 -23.499 -15.200  0.00  0.00    +0.006 C 
ATOM      6  C   UNL     1      35.667 -24.245 -13.196  0.00  0.00    +0.029 C 
ATOM      7  C   UNL     1      33.018 -23.829 -13.926  0.00  0.00    +0.029 C 
ATOM      8  C   UNL     1      37.265 -24.219 -15.017  0.00  0.00    +0.004 C 
ATOM      9  C   UNL     1      32.631 -23.493 -16.292  0.00  0.00    +0.000 C 
ATOM     10  C   UNL     1      38.205 -24.860 -14.208  0.00  0.00    +0.071 C 
ATOM     11  C   UNL     1      36.622 -24.882 -12.390  0.00  0.00    +0.006 C 
ATOM     12  C   UNL     1      31.652 -24.103 -13.758  0.00  0.00    +0.006 C 
ATOM     13  C   UNL     1      37.885 -25.186 -12.895  0.00  0.00    +0.004 C 
ATOM     14  C   UNL     1      31.274 -23.774 -16.116  0.00  0.00    +0.000 C 
ATOM     15  C   UNL     1      30.785 -24.074 -14.849  0.00  0.00    +0.001 C 
ENDROOT
BRANCH  10  19
ATOM     16  F   UNL     1      40.563 -25.030 -13.846  0.00  0.00    -0.166 F 
ATOM     17  F   UNL     1      39.667 -26.480 -15.187  0.00  0.00    -0.166 F 
ATOM     18  F   UNL     1      39.893 -24.413 -15.820  0.00  0.00    -0.166 F 
ATOM     19  C   UNL     1      39.553 -25.190 -14.752  0.00  0.00    +0.419 C 
ENDBRANCH  10  19
BRANCH   2  20
ATOM     20  C   UNL     1      36.782 -21.874 -16.457  0.00  0.00    +0.003 C 
BRANCH  20  21
ATOM     21  C   UNL     1      37.135 -22.004 -17.938  0.00  0.00    -0.073 C 
BRANCH  21  22
ATOM     22  N   UNL     1      36.361 -21.049 -18.729  0.00  0.00    +0.384 N 
ATOM     23  N   UNL     1      35.213 -20.089 -21.202  0.00  0.00    +0.386 N 
ATOM     24  C   UNL     1      37.196 -20.437 -19.771  0.00  0.00    -0.101 C 
ATOM     25  C   UNL     1      35.188 -21.698 -19.328  0.00  0.00    -0.101 C 
ATOM     26  C   UNL     1      36.385 -19.439 -20.604  0.00  0.00    -0.101 C 
ATOM     27  C   UNL     1      34.378 -20.699 -20.161  0.00  0.00    -0.101 C 
ATOM     28  H   UNL     1      36.036 -20.312 -18.104  0.00  0.00    -0.080 HD
ATOM     29  H   UNL     1      35.538 -20.827 -21.827  0.00  0.00    -0.080 HD
BRANCH  23  30
ATOM     30  C   UNL     1      34.439 -19.136 -21.996  0.00  0.00    -0.045 C 
BRANCH  30  31
ATOM     31  C   UNL     1      34.943 -19.097 -23.430  0.00  0.00    +0.115 C 
BRANCH  31  32
ATOM     32  O   UNL     1      35.641 -17.876 -23.636  0.00  0.00    -0.384 OA
ATOM     33  H   UNL     1      35.308 -17.445 -24.439  0.00  0.00    +0.210 HD
ENDBRANCH  31  32
ENDBRANCH  30  31
ENDBRANCH  23  30
ENDBRANCH  21  22
ENDBRANCH  20  21
ENDBRANCH   2  20
TORSDOF 7
ENDMDL
MODEL 4
REMARK VINA RESULT:      -9.1      4.334      7.429
REMARK  Name = 5281881
REMARK  7 active torsions:
REMARK  status: ('A' for Active; 'I' for Inactive)
REMARK    1  A    between atoms: C_2  and  C_20
REMARK    2  A    between atoms: C_10  and  C_19
REMARK    3  A    between atoms: C_20  and  C_21
REMARK    4  A    between atoms: C_21  and  N_22
REMARK    5  A    between atoms: N_23  and  C_30
REMARK    6  A    between atoms: C_30  and  C_31
REMARK    7  A    between atoms: C_31  and  O_32
REMARK                            x       y       z     vdW  Elec       q    Type
REMARK                         _______ _______ _______ _____ _____    ______ ____
ROOT
ATOM      1  S   UNL     1      31.872 -23.144 -13.152  0.00  0.00    -0.087 S 
ATOM      2  C   UNL     1      33.073 -22.944 -17.261  0.00  0.00    -0.028 C 
ATOM      3  C   UNL     1      32.709 -23.547 -16.112  0.00  0.00    -0.003 C 
ATOM      4  C   UNL     1      33.753 -23.874 -15.105  0.00  0.00    +0.006 C 
ATOM      5  C   UNL     1      31.263 -23.744 -15.826  0.00  0.00    +0.006 C 
ATOM      6  C   UNL     1      33.459 -23.733 -13.735  0.00  0.00    +0.029 C 
ATOM      7  C   UNL     1      30.793 -23.594 -14.508  0.00  0.00    +0.029 C 
ATOM      8  C   UNL     1      35.016 -24.368 -15.478  0.00  0.00    +0.004 C 
ATOM      9  C   UNL     1      30.354 -24.126 -16.828  0.00  0.00    +0.000 C 
ATOM     10  C   UNL     1      35.976 -24.681 -14.514  0.00  0.00    +0.071 C 
ATOM     11  C   UNL     1      34.433 -24.043 -12.775  0.00  0.00    +0.006 C 
ATOM     12  C   UNL     1      29.432 -23.783 -14.223  0.00  0.00    +0.006 C 
ATOM     13  C   UNL     1      35.686 -24.513 -13.164  0.00  0.00    +0.004 C 
ATOM     14  C   UNL     1      29.002 -24.319 -16.534  0.00  0.00    +0.000 C 
ATOM     15  C   UNL     1      28.541 -24.142 -15.233  0.00  0.00    +0.001 C 
ENDROOT
BRANCH  10  19
ATOM     16  F   UNL     1      38.038 -24.291 -15.662  0.00  0.00    -0.166 F 
ATOM     17  F   UNL     1      38.121 -25.531 -13.884  0.00  0.00    -0.166 F 
ATOM     18  F   UNL     1      37.230 -26.309 -15.708  0.00  0.00    -0.166 F 
ATOM     19  C   UNL     1      37.313 -25.190 -14.932  0.00  0.00    +0.419 C 
ENDBRANCH  10  19
BRANCH   2  20
ATOM     20  C   UNL     1      34.494 -22.693 -17.652  0.00  0.00    +0.003 C 
BRANCH  20  21
ATOM     21  C   UNL     1      34.631 -22.575 -19.169  0.00  0.00    -0.073 C 
BRANCH  21  22
ATOM     22  N   UNL     1      34.694 -21.170 -19.565  0.00  0.00    +0.384 N 
ATOM     23  N   UNL     1      34.826 -19.052 -21.528  0.00  0.00    +0.386 N 
ATOM     24  C   UNL     1      35.932 -20.892 -20.306  0.00  0.00    -0.101 C 
ATOM     25  C   UNL     1      33.522 -20.800 -20.368  0.00  0.00    -0.101 C 
ATOM     26  C   UNL     1      35.998 -19.419 -20.725  0.00  0.00    -0.101 C 
ATOM     27  C   UNL     1      33.590 -19.328 -20.787  0.00  0.00    -0.101 C 
ATOM     28  H   UNL     1      34.694 -20.603 -18.717  0.00  0.00    -0.080 HD
ATOM     29  H   UNL     1      34.825 -19.618 -22.376  0.00  0.00    -0.080 HD
BRANCH  23  30
ATOM     30  C   UNL     1      34.890 -17.646 -21.926  0.00  0.00    -0.045 C 
BRANCH  30  31
ATOM     31  C   UNL     1      35.217 -17.522 -23.405  0.00  0.00    +0.115 C 
BRANCH  31  32
ATOM     32  O   UNL     1      35.687 -16.204 -23.660  0.00  0.00    -0.384 OA
ATOM     33  H   UNL     1      36.314 -16.222 -24.399  0.00  0.00    +0.210 HD
ENDBRANCH  31  32
ENDBRANCH  30  31
ENDBRANCH  23  30
ENDBRANCH  21  22
ENDBRANCH  20  21
ENDBRANCH   2  20
TORSDOF 7
ENDMDL
MODEL 5
REMARK VINA RESULT:      -8.8      9.478     12.807
REMARK  Name = 5281881
REMARK  7 active torsions:
REMARK  status: ('A' for Active; 'I' for Inactive)
REMARK    1  A    between atoms: C_2  and  C_20
REMARK    2  A    between atoms: C_10  and  C_19
REMARK    3  A    between atoms: C_20  and  C_21
REMARK    4  A    between atoms: C_21  and  N_22
REMARK    5  A    between atoms: N_23  and  C_30
REMARK    6  A    between atoms: C_30  and  C_31
REMARK    7  A    between atoms: C_31  and  O_32
REMARK                            x       y       z     vdW  Elec       q    Type
REMARK                         _______ _______ _______ _____ _____    ______ ____
ROOT
ATOM      1  S   UNL     1      34.181 -10.669 -24.857  0.00  0.00    -0.087 S 
ATOM      2  C   UNL     1      33.474 -14.285 -22.670  0.00  0.00    -0.028 C 
ATOM      3  C   UNL     1      33.146 -13.220 -23.427  0.00  0.00    -0.003 C 
ATOM      4  C   UNL     1      32.808 -11.935 -22.760  0.00  0.00    +0.006 C 
ATOM      5  C   UNL     1      33.264 -13.321 -24.907  0.00  0.00    +0.006 C 
ATOM      6  C   UNL     1      33.227 -10.723 -23.343  0.00  0.00    +0.029 C 
ATOM      7  C   UNL     1      33.714 -12.208 -25.641  0.00  0.00    +0.029 C 
ATOM      8  C   UNL     1      32.039 -11.889 -21.583  0.00  0.00    +0.004 C 
ATOM      9  C   UNL     1      32.891 -14.485 -25.603  0.00  0.00    +0.000 C 
ATOM     10  C   UNL     1      31.723 -10.670 -20.982  0.00  0.00    +0.071 C 
ATOM     11  C   UNL     1      32.909  -9.504 -22.726  0.00  0.00    +0.006 C 
ATOM     12  C   UNL     1      33.823 -12.288 -27.038  0.00  0.00    +0.006 C 
ATOM     13  C   UNL     1      32.163  -9.479 -21.550  0.00  0.00    +0.004 C 
ATOM     14  C   UNL     1      32.997 -14.552 -26.994  0.00  0.00    +0.000 C 
ATOM     15  C   UNL     1      33.468 -13.456 -27.710  0.00  0.00    +0.001 C 
ENDROOT
BRANCH  10  19
ATOM     16  F   UNL     1      31.385 -11.488 -18.759  0.00  0.00    -0.166 F 
ATOM     17  F   UNL     1      30.868  -9.415 -19.133  0.00  0.00    -0.166 F 
ATOM     18  F   UNL     1      29.618 -11.005 -19.930  0.00  0.00    -0.166 F 
ATOM     19  C   UNL     1      30.918 -10.645 -19.727  0.00  0.00    +0.419 C 
ENDBRANCH  10  19
BRANCH   2  20
ATOM     20  C   UNL     1      33.395 -14.298 -21.177  0.00  0.00    +0.003 C 
BRANCH  20  21
ATOM     21  C   UNL     1      32.717 -15.573 -20.676  0.00  0.00    -0.073 C 
BRANCH  21  22
ATOM     22  N   UNL     1      33.455 -16.750 -21.128  0.00  0.00    +0.384 N 
ATOM     23  N   UNL     1      34.968 -19.171 -20.674  0.00  0.00    +0.386 N 
ATOM     24  C   UNL     1      34.848 -16.704 -20.662  0.00  0.00    -0.101 C 
ATOM     25  C   UNL     1      32.802 -17.983 -20.671  0.00  0.00    -0.101 C 
ATOM     26  C   UNL     1      35.623 -17.940 -21.132  0.00  0.00    -0.101 C 
ATOM     27  C   UNL     1      33.578 -19.218 -21.141  0.00  0.00    -0.101 C 
ATOM     28  H   UNL     1      33.459 -16.748 -22.148  0.00  0.00    -0.080 HD
ATOM     29  H   UNL     1      34.965 -19.174 -19.653  0.00  0.00    -0.080 HD
BRANCH  23  30
ATOM     30  C   UNL     1      35.708 -20.349 -21.124  0.00  0.00    -0.045 C 
BRANCH  30  31
ATOM     31  C   UNL     1      35.931 -21.316 -19.972  0.00  0.00    +0.115 C 
BRANCH  31  32
ATOM     32  O   UNL     1      36.614 -20.634 -18.928  0.00  0.00    -0.384 OA
ATOM     33  H   UNL     1      36.266 -19.733 -18.849  0.00  0.00    +0.210 HD
ENDBRANCH  31  32
ENDBRANCH  30  31
ENDBRANCH  23  30
ENDBRANCH  21  22
ENDBRANCH  20  21
ENDBRANCH   2  20
TORSDOF 7
ENDMDL
MODEL 6
REMARK VINA RESULT:      -8.7      3.741      6.379
REMARK  Name = 5281881
REMARK  7 active torsions:
REMARK  status: ('A' for Active; 'I' for Inactive)
REMARK    1  A    between atoms: C_2  and  C_20
REMARK    2  A    between atoms: C_10  and  C_19
REMARK    3  A    between atoms: C_20  and  C_21
REMARK    4  A    between atoms: C_21  and  N_22
REMARK    5  A    between atoms: N_23  and  C_30
REMARK    6  A    between atoms: C_30  and  C_31
REMARK    7  A    between atoms: C_31  and  O_32
REMARK                            x       y       z     vdW  Elec       q    Type
REMARK                         _______ _______ _______ _____ _____    ______ ____
ROOT
ATOM      1  S   UNL     1      33.885 -25.443 -13.530  0.00  0.00    -0.087 S 
ATOM      2  C   UNL     1      34.125 -22.936 -16.997  0.00  0.00    -0.028 C 
ATOM      3  C   UNL     1      33.953 -23.218 -15.691  0.00  0.00    -0.003 C 
ATOM      4  C   UNL     1      32.598 -23.590 -15.203  0.00  0.00    +0.006 C 
ATOM      5  C   UNL     1      35.145 -23.281 -14.803  0.00  0.00    +0.006 C 
ATOM      6  C   UNL     1      32.471 -24.583 -14.213  0.00  0.00    +0.029 C 
ATOM      7  C   UNL     1      35.196 -24.251 -13.785  0.00  0.00    +0.029 C 
ATOM      8  C   UNL     1      31.439 -22.944 -15.667  0.00  0.00    +0.004 C 
ATOM      9  C   UNL     1      36.205 -22.365 -14.917  0.00  0.00    +0.000 C 
ATOM     10  C   UNL     1      30.179 -23.302 -15.185  0.00  0.00    +0.071 C 
ATOM     11  C   UNL     1      31.199 -24.940 -13.740  0.00  0.00    +0.006 C 
ATOM     12  C   UNL     1      36.312 -24.318 -12.936  0.00  0.00    +0.006 C 
ATOM     13  C   UNL     1      30.059 -24.303 -14.227  0.00  0.00    +0.004 C 
ATOM     14  C   UNL     1      37.308 -22.435 -14.063  0.00  0.00    +0.000 C 
ATOM     15  C   UNL     1      37.363 -23.414 -13.077  0.00  0.00    +0.001 C 
ENDROOT
BRANCH  10  19
ATOM     16  F   UNL     1      28.509 -21.615 -14.888  0.00  0.00    -0.166 F 
ATOM     17  F   UNL     1      29.141 -22.027 -16.922  0.00  0.00    -0.166 F 
ATOM     18  F   UNL     1      27.904 -23.464 -15.858  0.00  0.00    -0.166 F 
ATOM     19  C   UNL     1      28.961 -22.615 -15.702  0.00  0.00    +0.419 C 
ENDBRANCH  10  19
BRANCH   2  20
ATOM     20  C   UNL     1      33.002 -22.846 -17.981  0.00  0.00    +0.003 C 
BRANCH  20  21
ATOM     21  C   UNL     1      33.534 -22.708 -19.406  0.00  0.00    -0.073 C 
BRANCH  21  22
ATOM     22  N   UNL     1      34.051 -21.359 -19.626  0.00  0.00    +0.384 N 
ATOM     23  N   UNL     1      35.103 -19.245 -21.294  0.00  0.00    +0.386 N 
ATOM     24  C   UNL     1      35.427 -21.405 -20.139  0.00  0.00    -0.101 C 
ATOM     25  C   UNL     1      33.185 -20.611 -20.547  0.00  0.00    -0.101 C 
ATOM     26  C   UNL     1      35.970 -19.990 -20.374  0.00  0.00    -0.101 C 
ATOM     27  C   UNL     1      33.729 -19.198 -20.780  0.00  0.00    -0.101 C 
ATOM     28  H   UNL     1      34.060 -20.875 -18.729  0.00  0.00    -0.080 HD
ATOM     29  H   UNL     1      35.094 -19.729 -22.192  0.00  0.00    -0.080 HD
BRANCH  23  30
ATOM     30  C   UNL     1      35.621 -17.896 -21.516  0.00  0.00    -0.045 C 
BRANCH  30  31
ATOM     31  C   UNL     1      34.525 -16.861 -21.321  0.00  0.00    +0.115 C 
BRANCH  31  32
ATOM     32  O   UNL     1      34.973 -15.890 -20.385  0.00  0.00    -0.384 OA
ATOM     33  H   UNL     1      34.209 -15.430 -20.006  0.00  0.00    +0.210 HD
ENDBRANCH  31  32
ENDBRANCH  30  31
ENDBRANCH  23  30
ENDBRANCH  21  22
ENDBRANCH  20  21
ENDBRANCH   2  20
TORSDOF 7
ENDMDL
MODEL 7
REMARK VINA RESULT:      -8.4      9.692     12.695
REMARK  Name = 5281881
REMARK  7 active torsions:
REMARK  status: ('A' for Active; 'I' for Inactive)
REMARK    1  A    between atoms: C_2  and  C_20
REMARK    2  A    between atoms: C_10  and  C_19
REMARK    3  A    between atoms: C_20  and  C_21
REMARK    4  A    between atoms: C_21  and  N_22
REMARK    5  A    between atoms: N_23  and  C_30
REMARK    6  A    between atoms: C_30  and  C_31
REMARK    7  A    between atoms: C_31  and  O_32
REMARK                            x       y       z     vdW  Elec       q    Type
REMARK                         _______ _______ _______ _____ _____    ______ ____
ROOT
ATOM      1  S   UNL     1      33.187 -16.040 -26.309  0.00  0.00    -0.087 S 
ATOM      2  C   UNL     1      32.935 -13.932 -22.586  0.00  0.00    -0.028 C 
ATOM      3  C   UNL     1      33.546 -14.446 -23.672  0.00  0.00    -0.003 C 
ATOM      4  C   UNL     1      34.024 -15.853 -23.635  0.00  0.00    +0.006 C 
ATOM      5  C   UNL     1      33.603 -13.636 -24.919  0.00  0.00    +0.006 C 
ATOM      6  C   UNL     1      33.913 -16.651 -24.790  0.00  0.00    +0.029 C 
ATOM      7  C   UNL     1      33.463 -14.277 -26.164  0.00  0.00    +0.029 C 
ATOM      8  C   UNL     1      34.631 -16.401 -22.490  0.00  0.00    +0.004 C 
ATOM      9  C   UNL     1      33.844 -12.251 -24.894  0.00  0.00    +0.000 C 
ATOM     10  C   UNL     1      35.084 -17.722 -22.483  0.00  0.00    +0.071 C 
ATOM     11  C   UNL     1      34.365 -17.978 -24.770  0.00  0.00    +0.006 C 
ATOM     12  C   UNL     1      33.521 -13.527 -27.348  0.00  0.00    +0.006 C 
ATOM     13  C   UNL     1      34.946 -18.511 -23.620  0.00  0.00    +0.004 C 
ATOM     14  C   UNL     1      33.908 -11.514 -26.079  0.00  0.00    +0.000 C 
ATOM     15  C   UNL     1      33.741 -12.151 -27.304  0.00  0.00    +0.001 C 
ENDROOT
BRANCH  10  19
ATOM     16  F   UNL     1      35.096 -19.417 -20.795  0.00  0.00    -0.166 F 
ATOM     17  F   UNL     1      37.021 -18.638 -21.422  0.00  0.00    -0.166 F 
ATOM     18  F   UNL     1      35.699 -17.412 -20.208  0.00  0.00    -0.166 F 
ATOM     19  C   UNL     1      35.711 -18.287 -21.255  0.00  0.00    +0.419 C 
ENDBRANCH  10  19
BRANCH   2  20
ATOM     20  C   UNL     1      32.817 -14.654 -21.282  0.00  0.00    +0.003 C 
BRANCH  20  21
ATOM     21  C   UNL     1      32.023 -13.828 -20.270  0.00  0.00    -0.073 C 
BRANCH  21  22
ATOM     22  N   UNL     1      32.273 -12.402 -20.472  0.00  0.00    +0.384 N 
ATOM     23  N   UNL     1      31.421  -9.654 -20.744  0.00  0.00    +0.386 N 
ATOM     24  C   UNL     1      31.613 -11.926 -21.695  0.00  0.00    -0.101 C 
ATOM     25  C   UNL     1      31.823 -11.624 -19.310  0.00  0.00    -0.101 C 
ATOM     26  C   UNL     1      31.870 -10.429 -21.906  0.00  0.00    -0.101 C 
ATOM     27  C   UNL     1      32.081 -10.129 -19.523  0.00  0.00    -0.101 C 
ATOM     28  H   UNL     1      33.278 -12.270 -20.577  0.00  0.00    -0.080 HD
ATOM     29  H   UNL     1      30.415  -9.786 -20.638  0.00  0.00    -0.080 HD
BRANCH  23  30
ATOM     30  C   UNL     1      31.668  -8.227 -20.947  0.00  0.00    -0.045 C 
BRANCH  30  31
ATOM     31  C   UNL     1      33.091  -7.867 -20.550  0.00  0.00    +0.115 C 
BRANCH  31  32
ATOM     32  O   UNL     1      33.047  -7.032 -19.400  0.00  0.00    -0.384 OA
ATOM     33  H   UNL     1      33.775  -7.265 -18.803  0.00  0.00    +0.210 HD
ENDBRANCH  31  32
ENDBRANCH  30  31
ENDBRANCH  23  30
ENDBRANCH  21  22
ENDBRANCH  20  21
ENDBRANCH   2  20
TORSDOF 7
ENDMDL
MODEL 8
REMARK VINA RESULT:      -8.2      2.897      5.201
REMARK  Name = 5281881
REMARK  7 active torsions:
REMARK  status: ('A' for Active; 'I' for Inactive)
REMARK    1  A    between atoms: C_2  and  C_20
REMARK    2  A    between atoms: C_10  and  C_19
REMARK    3  A    between atoms: C_20  and  C_21
REMARK    4  A    between atoms: C_21  and  N_22
REMARK    5  A    between atoms: N_23  and  C_30
REMARK    6  A    between atoms: C_30  and  C_31
REMARK    7  A    between atoms: C_31  and  O_32
REMARK                            x       y       z     vdW  Elec       q    Type
REMARK                         _______ _______ _______ _____ _____    ______ ____
ROOT
ATOM      1  S   UNL     1      36.891 -21.280 -19.609  0.00  0.00    -0.087 S 
ATOM      2  C   UNL     1      33.320 -23.274 -18.330  0.00  0.00    -0.028 C 
ATOM      3  C   UNL     1      34.232 -22.282 -18.365  0.00  0.00    -0.003 C 
ATOM      4  C   UNL     1      35.420 -22.360 -17.474  0.00  0.00    +0.006 C 
ATOM      5  C   UNL     1      34.094 -21.210 -19.387  0.00  0.00    +0.006 C 
ATOM      6  C   UNL     1      36.669 -21.917 -17.950  0.00  0.00    +0.029 C 
ATOM      7  C   UNL     1      35.249 -20.685 -19.997  0.00  0.00    +0.029 C 
ATOM      8  C   UNL     1      35.326 -22.821 -16.149  0.00  0.00    +0.004 C 
ATOM      9  C   UNL     1      32.842 -20.667 -19.729  0.00  0.00    +0.000 C 
ATOM     10  C   UNL     1      36.453 -22.873 -15.328  0.00  0.00    +0.071 C 
ATOM     11  C   UNL     1      37.797 -21.980 -17.118  0.00  0.00    +0.006 C 
ATOM     12  C   UNL     1      35.133 -19.669 -20.958  0.00  0.00    +0.006 C 
ATOM     13  C   UNL     1      37.688 -22.458 -15.814  0.00  0.00    +0.004 C 
ATOM     14  C   UNL     1      32.739 -19.650 -20.682  0.00  0.00    +0.000 C 
ATOM     15  C   UNL     1      33.883 -19.156 -21.299  0.00  0.00    +0.001 C 
ENDROOT
BRANCH  10  19
ATOM     16  F   UNL     1      36.631 -24.706 -13.800  0.00  0.00    -0.166 F 
ATOM     17  F   UNL     1      37.156 -22.741 -13.045  0.00  0.00    -0.166 F 
ATOM     18  F   UNL     1      35.073 -23.236 -13.426  0.00  0.00    -0.166 F 
ATOM     19  C   UNL     1      36.333 -23.379 -13.930  0.00  0.00    +0.419 C 
ENDBRANCH  10  19
BRANCH   2  20
ATOM     20  C   UNL     1      33.358 -24.401 -17.349  0.00  0.00    +0.003 C 
BRANCH  20  21
ATOM     21  C   UNL     1      32.768 -23.977 -16.005  0.00  0.00    -0.073 C 
BRANCH  21  22
ATOM     22  N   UNL     1      31.315 -23.861 -16.103  0.00  0.00    +0.384 N 
ATOM     23  N   UNL     1      28.789 -22.580 -15.521  0.00  0.00    +0.386 N 
ATOM     24  C   UNL     1      30.692 -23.969 -14.777  0.00  0.00    -0.101 C 
ATOM     25  C   UNL     1      30.934 -22.598 -16.747  0.00  0.00    -0.101 C 
ATOM     26  C   UNL     1      29.168 -23.843 -14.878  0.00  0.00    -0.101 C 
ATOM     27  C   UNL     1      29.410 -22.474 -16.847  0.00  0.00    -0.101 C 
ATOM     28  H   UNL     1      30.976 -24.630 -16.680  0.00  0.00    -0.080 HD
ATOM     29  H   UNL     1      29.129 -21.810 -14.945  0.00  0.00    -0.080 HD
BRANCH  23  30
ATOM     30  C   UNL     1      27.336 -22.463 -15.618  0.00  0.00    -0.045 C 
BRANCH  30  31
ATOM     31  C   UNL     1      26.928 -21.957 -16.993  0.00  0.00    +0.115 C 
BRANCH  31  32
ATOM     32  O   UNL     1      25.571 -21.536 -16.941  0.00  0.00    -0.384 OA
ATOM     33  H   UNL     1      24.999 -22.248 -17.269  0.00  0.00    +0.210 HD
ENDBRANCH  31  32
ENDBRANCH  30  31
ENDBRANCH  23  30
ENDBRANCH  21  22
ENDBRANCH  20  21
ENDBRANCH   2  20
TORSDOF 7
ENDMDL
MODEL 9
REMARK VINA RESULT:      -8.1     12.648     15.898
REMARK  Name = 5281881
REMARK  7 active torsions:
REMARK  status: ('A' for Active; 'I' for Inactive)
REMARK    1  A    between atoms: C_2  and  C_20
REMARK    2  A    between atoms: C_10  and  C_19
REMARK    3  A    between atoms: C_20  and  C_21
REMARK    4  A    between atoms: C_21  and  N_22
REMARK    5  A    between atoms: N_23  and  C_30
REMARK    6  A    between atoms: C_30  and  C_31
REMARK    7  A    between atoms: C_31  and  O_32
REMARK                            x       y       z     vdW  Elec       q    Type
REMARK                         _______ _______ _______ _____ _____    ______ ____
ROOT
ATOM      1  S   UNL     1      32.475  -6.187 -20.686  0.00  0.00    -0.087 S 
ATOM      2  C   UNL     1      33.344  -8.717 -24.033  0.00  0.00    -0.028 C 
ATOM      3  C   UNL     1      32.563  -8.111 -23.117  0.00  0.00    -0.003 C 
ATOM      4  C   UNL     1      32.358  -8.763 -21.797  0.00  0.00    +0.006 C 
ATOM      5  C   UNL     1      32.041  -6.748 -23.402  0.00  0.00    +0.006 C 
ATOM      6  C   UNL     1      32.293  -7.967 -20.637  0.00  0.00    +0.029 C 
ATOM      7  C   UNL     1      31.953  -5.810 -22.356  0.00  0.00    +0.029 C 
ATOM      8  C   UNL     1      32.179 -10.153 -21.675  0.00  0.00    +0.004 C 
ATOM      9  C   UNL     1      31.584  -6.380 -24.680  0.00  0.00    +0.000 C 
ATOM     10  C   UNL     1      31.974 -10.741 -20.425  0.00  0.00    +0.071 C 
ATOM     11  C   UNL     1      32.094  -8.570 -19.386  0.00  0.00    +0.006 C 
ATOM     12  C   UNL     1      31.456  -4.522 -22.609  0.00  0.00    +0.006 C 
ATOM     13  C   UNL     1      31.938  -9.950 -19.282  0.00  0.00    +0.004 C 
ATOM     14  C   UNL     1      31.084  -5.097 -24.920  0.00  0.00    +0.000 C 
ATOM     15  C   UNL     1      31.026  -4.168 -23.887  0.00  0.00    +0.001 C 
ENDROOT
BRANCH  10  19
ATOM     16  F   UNL     1      30.797 -12.710 -21.103  0.00  0.00    -0.166 F 
ATOM     17  F   UNL     1      32.913 -12.927 -20.674  0.00  0.00    -0.166 F 
ATOM     18  F   UNL     1      31.503 -12.620 -19.048  0.00  0.00    -0.166 F 
ATOM     19  C   UNL     1      31.801 -12.218 -20.317  0.00  0.00    +0.419 C 
ENDBRANCH  10  19
BRANCH   2  20
ATOM     20  C   UNL     1      33.924 -10.084 -23.855  0.00  0.00    +0.003 C 
BRANCH  20  21
ATOM     21  C   UNL     1      33.606 -10.973 -25.056  0.00  0.00    -0.073 C 
BRANCH  21  22
ATOM     22  N   UNL     1      33.400 -12.354 -24.624  0.00  0.00    +0.384 N 
ATOM     23  N   UNL     1      34.248 -15.094 -24.269  0.00  0.00    +0.386 N 
ATOM     24  C   UNL     1      33.495 -13.276 -25.763  0.00  0.00    -0.101 C 
ATOM     25  C   UNL     1      34.365 -12.725 -23.582  0.00  0.00    -0.101 C 
ATOM     26  C   UNL     1      33.282 -14.726 -25.311  0.00  0.00    -0.101 C 
ATOM     27  C   UNL     1      34.151 -14.174 -23.131  0.00  0.00    -0.101 C 
ATOM     28  H   UNL     1      32.461 -12.424 -24.232  0.00  0.00    -0.080 HD
ATOM     29  H   UNL     1      35.187 -15.024 -24.661  0.00  0.00    -0.080 HD
BRANCH  23  30
ATOM     30  C   UNL     1      34.043 -16.476 -23.838  0.00  0.00    -0.045 C 
BRANCH  30  31
ATOM     31  C   UNL     1      34.989 -16.830 -22.702  0.00  0.00    +0.115 C 
BRANCH  31  32
ATOM     32  O   UNL     1      35.980 -17.723 -23.193  0.00  0.00    -0.384 OA
ATOM     33  H   UNL     1      36.618 -17.232 -23.734  0.00  0.00    +0.210 HD
ENDBRANCH  31  32
ENDBRANCH  30  31
ENDBRANCH  23  30
ENDBRANCH  21  22
ENDBRANCH  20  21
ENDBRANCH   2  20
TORSDOF 7
ENDMDL
