MODEL 1
REMARK VINA RESULT:      -8.7      0.000      0.000
REMARK  Name = 61306
REMARK  9 active torsions:
REMARK  status: ('A' for Active; 'I' for Inactive)
REMARK    1  A    between atoms: N_1  and  C_19
REMARK    2  A    between atoms: C_2  and  C_8
REMARK    3  A    between atoms: C_2  and  C_15
REMARK    4  A    between atoms: C_15  and  O_16
REMARK    5  A    between atoms: O_16  and  C_17
REMARK    6  A    between atoms: C_19  and  C_20
REMARK    7  A    between atoms: C_20  and  O_21
REMARK    8  A    between atoms: O_21  and  C_22
REMARK    9  A    between atoms: C_22  and  C_24
REMARK                            x       y       z     vdW  Elec       q    Type
REMARK                         _______ _______ _______ _____ _____    ______ ____
ROOT
ATOM      1  N   UNL     1      35.995 -20.279 -20.658  0.00  0.00    +0.389 N 
ATOM      2  C   UNL     1      34.783 -18.228 -22.454  0.00  0.00    +0.104 C 
ATOM      3  C   UNL     1      36.308 -18.393 -22.216  0.00  0.00    -0.008 C 
ATOM      4  C   UNL     1      34.139 -19.610 -22.160  0.00  0.00    -0.008 C 
ATOM      5  C   UNL     1      36.627 -18.967 -20.833  0.00  0.00    -0.076 C 
ATOM      6  C   UNL     1      34.538 -20.189 -20.795  0.00  0.00    -0.076 C 
ATOM      7  H   UNL     1      36.342 -20.895 -21.394  0.00  0.00    -0.080 HD
ENDROOT
BRANCH   2   8
ATOM      8  C   UNL     1      34.195 -17.034 -21.687  0.00  0.00    -0.013 C 
ATOM      9  C   UNL     1      35.016 -15.967 -21.325  0.00  0.00    -0.004 C 
ATOM     10  C   UNL     1      32.840 -17.017 -21.354  0.00  0.00    -0.004 C 
ATOM     11  C   UNL     1      34.482 -14.881 -20.629  0.00  0.00    -0.000 C 
ATOM     12  C   UNL     1      32.306 -15.932 -20.659  0.00  0.00    -0.000 C 
ATOM     13  C   UNL     1      33.128 -14.865 -20.296  0.00  0.00    -0.000 C 
ENDBRANCH   2   8
BRANCH   2  15
ATOM     14  O   UNL     1      34.185 -18.817 -24.725  0.00  0.00    -0.250 OA
ATOM     15  C   UNL     1      34.570 -17.970 -23.931  0.00  0.00    +0.320 C 
BRANCH  15  16
ATOM     16  O   UNL     1      34.873 -16.672 -24.216  0.00  0.00    -0.448 OA
BRANCH  16  17
ATOM     17  C   UNL     1      34.024 -16.039 -25.178  0.00  0.00    +0.209 C 
ATOM     18  C   UNL     1      33.416 -14.798 -24.559  0.00  0.00    +0.051 C 
ENDBRANCH  16  17
ENDBRANCH  15  16
ENDBRANCH   2  15
BRANCH   1  19
ATOM     19  C   UNL     1      36.355 -20.855 -19.362  0.00  0.00    -0.045 C 
BRANCH  19  20
ATOM     20  C   UNL     1      35.370 -21.944 -18.967  0.00  0.00    +0.120 C 
BRANCH  20  21
ATOM     21  O   UNL     1      35.701 -22.408 -17.665  0.00  0.00    -0.353 OA
BRANCH  21  22
ATOM     22  C   UNL     1      36.931 -21.859 -17.212  0.00  0.00    +0.171 C 
BRANCH  22  24
ATOM     23  O   UNL     1      38.233 -23.234 -15.709  0.00  0.00    -0.354 OA
ATOM     24  C   UNL     1      37.160 -22.279 -15.773  0.00  0.00    +0.145 C 
ATOM     25  C   UNL     1      35.954 -22.953 -15.140  0.00  0.00    +0.035 C 
ATOM     26  C   UNL     1      36.608 -23.800 -14.077  0.00  0.00    +0.035 C 
ATOM     27  C   UNL     1      37.868 -24.263 -14.776  0.00  0.00    +0.142 C 
ENDBRANCH  22  24
ENDBRANCH  21  22
ENDBRANCH  20  21
ENDBRANCH  19  20
ENDBRANCH   1  19
TORSDOF 9
ENDMDL
MODEL 2
REMARK VINA RESULT:      -8.1      7.100     11.242
REMARK  Name = 61306
REMARK  9 active torsions:
REMARK  status: ('A' for Active; 'I' for Inactive)
REMARK    1  A    between atoms: N_1  and  C_19
REMARK    2  A    between atoms: C_2  and  C_8
REMARK    3  A    between atoms: C_2  and  C_15
REMARK    4  A    between atoms: C_15  and  O_16
REMARK    5  A    between atoms: O_16  and  C_17
REMARK    6  A    between atoms: C_19  and  C_20
REMARK    7  A    between atoms: C_20  and  O_21
REMARK    8  A    between atoms: O_21  and  C_22
REMARK    9  A    between atoms: C_22  and  C_24
REMARK                            x       y       z     vdW  Elec       q    Type
REMARK                         _______ _______ _______ _____ _____    ______ ____
ROOT
ATOM      1  N   UNL     1      34.003  -9.978 -24.039  0.00  0.00    +0.389 N 
ATOM      2  C   UNL     1      32.770  -7.513 -22.896  0.00  0.00    +0.104 C 
ATOM      3  C   UNL     1      32.000  -8.833 -23.167  0.00  0.00    -0.008 C 
ATOM      4  C   UNL     1      34.261  -7.904 -22.705  0.00  0.00    -0.008 C 
ATOM      5  C   UNL     1      32.605  -9.640 -24.320  0.00  0.00    -0.076 C 
ATOM      6  C   UNL     1      34.814  -8.771 -23.844  0.00  0.00    -0.076 C 
ATOM      7  H   UNL     1      34.028 -10.515 -23.171  0.00  0.00    -0.080 HD
ENDROOT
BRANCH   2   8
ATOM      8  C   UNL     1      32.486  -6.440 -23.958  0.00  0.00    -0.013 C 
ATOM      9  C   UNL     1      31.264  -5.768 -23.960  0.00  0.00    -0.004 C 
ATOM     10  C   UNL     1      33.451  -6.137 -24.919  0.00  0.00    -0.004 C 
ATOM     11  C   UNL     1      31.006  -4.793 -24.924  0.00  0.00    -0.000 C 
ATOM     12  C   UNL     1      33.193  -5.162 -25.883  0.00  0.00    -0.000 C 
ATOM     13  C   UNL     1      31.970  -4.491 -25.885  0.00  0.00    -0.000 C 
ENDBRANCH   2   8
BRANCH   2  15
ATOM     14  O   UNL     1      32.531  -5.835 -21.167  0.00  0.00    -0.250 OA
ATOM     15  C   UNL     1      32.303  -6.969 -21.563  0.00  0.00    +0.320 C 
BRANCH  15  16
ATOM     16  O   UNL     1      31.606  -7.934 -20.897  0.00  0.00    -0.448 OA
BRANCH  16  17
ATOM     17  C   UNL     1      32.180  -8.363 -19.658  0.00  0.00    +0.209 C 
ATOM     18  C   UNL     1      31.927  -9.845 -19.485  0.00  0.00    +0.051 C 
ENDBRANCH  16  17
ENDBRANCH  15  16
ENDBRANCH   2  15
BRANCH   1  19
ATOM     19  C   UNL     1      34.560 -10.804 -25.111  0.00  0.00    -0.045 C 
BRANCH  19  20
ATOM     20  C   UNL     1      33.790 -12.108 -25.239  0.00  0.00    +0.120 C 
BRANCH  20  21
ATOM     21  O   UNL     1      33.978 -12.868 -24.053  0.00  0.00    -0.353 OA
BRANCH  21  22
ATOM     22  C   UNL     1      32.790 -13.552 -23.678  0.00  0.00    +0.171 C 
BRANCH  22  24
ATOM     23  O   UNL     1      32.162 -14.833 -21.726  0.00  0.00    -0.354 OA
ATOM     24  C   UNL     1      33.153 -14.703 -22.759  0.00  0.00    +0.145 C 
ATOM     25  C   UNL     1      34.483 -14.514 -22.049  0.00  0.00    +0.035 C 
ATOM     26  C   UNL     1      34.287 -15.360 -20.815  0.00  0.00    +0.035 C 
ATOM     27  C   UNL     1      32.833 -15.099 -20.485  0.00  0.00    +0.142 C 
ENDBRANCH  22  24
ENDBRANCH  21  22
ENDBRANCH  20  21
ENDBRANCH  19  20
ENDBRANCH   1  19
TORSDOF 9
ENDMDL
MODEL 3
REMARK VINA RESULT:      -8.0      1.851      3.263
REMARK  Name = 61306
REMARK  9 active torsions:
REMARK  status: ('A' for Active; 'I' for Inactive)
REMARK    1  A    between atoms: N_1  and  C_19
REMARK    2  A    between atoms: C_2  and  C_8
REMARK    3  A    between atoms: C_2  and  C_15
REMARK    4  A    between atoms: C_15  and  O_16
REMARK    5  A    between atoms: O_16  and  C_17
REMARK    6  A    between atoms: C_19  and  C_20
REMARK    7  A    between atoms: C_20  and  O_21
REMARK    8  A    between atoms: O_21  and  C_22
REMARK    9  A    between atoms: C_22  and  C_24
REMARK                            x       y       z     vdW  Elec       q    Type
REMARK                         _______ _______ _______ _____ _____    ______ ____
ROOT
ATOM      1  N   UNL     1      34.928 -20.358 -20.114  0.00  0.00    +0.389 N 
ATOM      2  C   UNL     1      34.492 -17.663 -21.320  0.00  0.00    +0.104 C 
ATOM      3  C   UNL     1      33.362 -18.559 -20.744  0.00  0.00    -0.008 C 
ATOM      4  C   UNL     1      35.801 -18.088 -20.600  0.00  0.00    -0.008 C 
ATOM      5  C   UNL     1      33.691 -20.051 -20.840  0.00  0.00    -0.076 C 
ATOM      6  C   UNL     1      36.062 -19.600 -20.654  0.00  0.00    -0.076 C 
ATOM      7  H   UNL     1      34.798 -20.078 -19.141  0.00  0.00    -0.080 HD
ENDROOT
BRANCH   2   8
ATOM      8  C   UNL     1      34.531 -17.682 -22.854  0.00  0.00    -0.013 C 
ATOM      9  C   UNL     1      34.432 -18.892 -23.539  0.00  0.00    -0.004 C 
ATOM     10  C   UNL     1      34.664 -16.487 -23.564  0.00  0.00    -0.004 C 
ATOM     11  C   UNL     1      34.467 -18.909 -24.934  0.00  0.00    -0.000 C 
ATOM     12  C   UNL     1      34.697 -16.504 -24.958  0.00  0.00    -0.000 C 
ATOM     13  C   UNL     1      34.599 -17.716 -25.643  0.00  0.00    -0.000 C 
ENDBRANCH   2   8
BRANCH   2  15
ATOM     14  O   UNL     1      35.062 -15.492 -20.410  0.00  0.00    -0.250 OA
ATOM     15  C   UNL     1      34.218 -16.237 -20.888  0.00  0.00    +0.320 C 
BRANCH  15  16
ATOM     16  O   UNL     1      32.908 -15.937 -21.114  0.00  0.00    -0.448 OA
BRANCH  16  17
ATOM     17  C   UNL     1      32.533 -14.582 -20.848  0.00  0.00    +0.209 C 
ATOM     18  C   UNL     1      32.408 -13.838 -22.160  0.00  0.00    +0.051 C 
ENDBRANCH  16  17
ENDBRANCH  15  16
ENDBRANCH   2  15
BRANCH   1  19
ATOM     19  C   UNL     1      35.205 -21.794 -20.152  0.00  0.00    -0.045 C 
BRANCH  19  20
ATOM     20  C   UNL     1      34.314 -22.538 -19.171  0.00  0.00    +0.120 C 
BRANCH  20  21
ATOM     21  O   UNL     1      35.007 -22.674 -17.937  0.00  0.00    -0.353 OA
BRANCH  21  22
ATOM     22  C   UNL     1      34.135 -23.084 -16.892  0.00  0.00    +0.171 C 
BRANCH  22  24
ATOM     23  O   UNL     1      36.254 -23.728 -15.923  0.00  0.00    -0.354 OA
ATOM     24  C   UNL     1      34.937 -23.243 -15.615  0.00  0.00    +0.145 C 
ATOM     25  C   UNL     1      34.334 -24.243 -14.642  0.00  0.00    +0.035 C 
ATOM     26  C   UNL     1      35.552 -24.680 -13.868  0.00  0.00    +0.035 C 
ATOM     27  C   UNL     1      36.613 -24.719 -14.948  0.00  0.00    +0.142 C 
ENDBRANCH  22  24
ENDBRANCH  21  22
ENDBRANCH  20  21
ENDBRANCH  19  20
ENDBRANCH   1  19
TORSDOF 9
ENDMDL
MODEL 4
REMARK VINA RESULT:      -7.9      9.638     14.567
REMARK  Name = 61306
REMARK  9 active torsions:
REMARK  status: ('A' for Active; 'I' for Inactive)
REMARK    1  A    between atoms: N_1  and  C_19
REMARK    2  A    between atoms: C_2  and  C_8
REMARK    3  A    between atoms: C_2  and  C_15
REMARK    4  A    between atoms: C_15  and  O_16
REMARK    5  A    between atoms: O_16  and  C_17
REMARK    6  A    between atoms: C_19  and  C_20
REMARK    7  A    between atoms: C_20  and  O_21
REMARK    8  A    between atoms: O_21  and  C_22
REMARK    9  A    between atoms: C_22  and  C_24
REMARK                            x       y       z     vdW  Elec       q    Type
REMARK                         _______ _______ _______ _____ _____    ______ ____
ROOT
ATOM      1  N   UNL     1      31.397  -5.859 -22.841  0.00  0.00    +0.389 N 
ATOM      2  C   UNL     1      32.671  -8.558 -22.804  0.00  0.00    +0.104 C 
ATOM      3  C   UNL     1      31.562  -8.126 -23.801  0.00  0.00    -0.008 C 
ATOM      4  C   UNL     1      33.386  -7.257 -22.349  0.00  0.00    -0.008 C 
ATOM      5  C   UNL     1      30.635  -7.054 -23.220  0.00  0.00    -0.076 C 
ATOM      6  C   UNL     1      32.421  -6.177 -21.840  0.00  0.00    -0.076 C 
ATOM      7  H   UNL     1      31.872  -5.512 -23.676  0.00  0.00    -0.080 HD
ENDROOT
BRANCH   2   8
ATOM      8  C   UNL     1      32.131  -9.457 -21.682  0.00  0.00    -0.013 C 
ATOM      9  C   UNL     1      32.418  -9.157 -20.350  0.00  0.00    -0.004 C 
ATOM     10  C   UNL     1      31.354 -10.573 -21.995  0.00  0.00    -0.004 C 
ATOM     11  C   UNL     1      31.927  -9.974 -19.330  0.00  0.00    -0.000 C 
ATOM     12  C   UNL     1      30.863 -11.389 -20.975  0.00  0.00    -0.000 C 
ATOM     13  C   UNL     1      31.150 -11.089 -19.643  0.00  0.00    -0.000 C 
ENDBRANCH   2   8
BRANCH   2  15
ATOM     14  O   UNL     1      34.902  -9.131 -23.549  0.00  0.00    -0.250 OA
ATOM     15  C   UNL     1      33.700  -9.357 -23.574  0.00  0.00    +0.320 C 
BRANCH  15  16
ATOM     16  O   UNL     1      33.077 -10.343 -24.281  0.00  0.00    -0.448 OA
BRANCH  16  17
ATOM     17  C   UNL     1      33.932 -11.371 -24.789  0.00  0.00    +0.209 C 
ATOM     18  C   UNL     1      33.688 -12.645 -24.010  0.00  0.00    +0.051 C 
ENDBRANCH  16  17
ENDBRANCH  15  16
ENDBRANCH   2  15
BRANCH   1  19
ATOM     19  C   UNL     1      30.503  -4.812 -22.347  0.00  0.00    -0.045 C 
BRANCH  19  20
ATOM     20  C   UNL     1      30.905  -3.456 -22.904  0.00  0.00    +0.120 C 
BRANCH  20  21
ATOM     21  O   UNL     1      30.607  -3.427 -24.294  0.00  0.00    -0.353 OA
BRANCH  21  22
ATOM     22  C   UNL     1      31.704  -2.934 -25.052  0.00  0.00    +0.171 C 
BRANCH  22  24
ATOM     23  O   UNL     1      32.733  -5.101 -25.354  0.00  0.00    -0.354 OA
ATOM     24  C   UNL     1      32.131  -3.995 -26.048  0.00  0.00    +0.145 C 
ATOM     25  C   UNL     1      33.169  -3.507 -27.045  0.00  0.00    +0.035 C 
ATOM     26  C   UNL     1      33.855  -4.796 -27.420  0.00  0.00    +0.035 C 
ATOM     27  C   UNL     1      33.882  -5.533 -26.098  0.00  0.00    +0.142 C 
ENDBRANCH  22  24
ENDBRANCH  21  22
ENDBRANCH  20  21
ENDBRANCH  19  20
ENDBRANCH   1  19
TORSDOF 9
ENDMDL
MODEL 5
REMARK VINA RESULT:      -7.8      2.527      4.024
REMARK  Name = 61306
REMARK  9 active torsions:
REMARK  status: ('A' for Active; 'I' for Inactive)
REMARK    1  A    between atoms: N_1  and  C_19
REMARK    2  A    between atoms: C_2  and  C_8
REMARK    3  A    between atoms: C_2  and  C_15
REMARK    4  A    between atoms: C_15  and  O_16
REMARK    5  A    between atoms: O_16  and  C_17
REMARK    6  A    between atoms: C_19  and  C_20
REMARK    7  A    between atoms: C_20  and  O_21
REMARK    8  A    between atoms: O_21  and  C_22
REMARK    9  A    between atoms: C_22  and  C_24
REMARK                            x       y       z     vdW  Elec       q    Type
REMARK                         _______ _______ _______ _____ _____    ______ ____
ROOT
ATOM      1  N   UNL     1      34.995 -20.374 -20.014  0.00  0.00    +0.389 N 
ATOM      2  C   UNL     1      34.542 -17.722 -21.306  0.00  0.00    +0.104 C 
ATOM      3  C   UNL     1      33.419 -18.604 -20.696  0.00  0.00    -0.008 C 
ATOM      4  C   UNL     1      35.856 -18.118 -20.578  0.00  0.00    -0.008 C 
ATOM      5  C   UNL     1      33.753 -20.097 -20.744  0.00  0.00    -0.076 C 
ATOM      6  C   UNL     1      36.123 -19.629 -20.584  0.00  0.00    -0.076 C 
ATOM      7  H   UNL     1      34.868 -20.063 -19.050  0.00  0.00    -0.080 HD
ENDROOT
BRANCH   2   8
ATOM      8  C   UNL     1      34.574 -17.792 -22.840  0.00  0.00    -0.013 C 
ATOM      9  C   UNL     1      34.775 -16.631 -23.586  0.00  0.00    -0.004 C 
ATOM     10  C   UNL     1      34.404 -19.016 -23.486  0.00  0.00    -0.004 C 
ATOM     11  C   UNL     1      34.805 -16.694 -24.980  0.00  0.00    -0.000 C 
ATOM     12  C   UNL     1      34.435 -19.080 -24.879  0.00  0.00    -0.000 C 
ATOM     13  C   UNL     1      34.635 -17.918 -25.626  0.00  0.00    -0.000 C 
ENDBRANCH   2   8
BRANCH   2  15
ATOM     14  O   UNL     1      35.083 -15.547 -20.392  0.00  0.00    -0.250 OA
ATOM     15  C   UNL     1      34.264 -16.285 -20.920  0.00  0.00    +0.320 C 
BRANCH  15  16
ATOM     16  O   UNL     1      32.981 -15.964 -21.252  0.00  0.00    -0.448 OA
BRANCH  16  17
ATOM     17  C   UNL     1      32.622 -14.592 -21.065  0.00  0.00    +0.209 C 
ATOM     18  C   UNL     1      32.481 -13.929 -22.418  0.00  0.00    +0.051 C 
ENDBRANCH  16  17
ENDBRANCH  15  16
ENDBRANCH   2  15
BRANCH   1  19
ATOM     19  C   UNL     1      35.278 -21.809 -20.005  0.00  0.00    -0.045 C 
BRANCH  19  20
ATOM     20  C   UNL     1      34.025 -22.602 -19.671  0.00  0.00    +0.120 C 
BRANCH  20  21
ATOM     21  O   UNL     1      34.287 -23.411 -18.533  0.00  0.00    -0.353 OA
BRANCH  21  22
ATOM     22  C   UNL     1      33.896 -22.762 -17.330  0.00  0.00    +0.171 C 
BRANCH  22  24
ATOM     23  O   UNL     1      31.479 -22.746 -17.258  0.00  0.00    -0.354 OA
ATOM     24  C   UNL     1      32.650 -23.435 -16.788  0.00  0.00    +0.145 C 
ATOM     25  C   UNL     1      32.567 -23.423 -15.271  0.00  0.00    +0.035 C 
ATOM     26  C   UNL     1      31.077 -23.513 -15.051  0.00  0.00    +0.035 C 
ATOM     27  C   UNL     1      30.543 -22.651 -16.175  0.00  0.00    +0.142 C 
ENDBRANCH  22  24
ENDBRANCH  21  22
ENDBRANCH  20  21
ENDBRANCH  19  20
ENDBRANCH   1  19
TORSDOF 9
ENDMDL
MODEL 6
REMARK VINA RESULT:      -7.7      3.749      9.174
REMARK  Name = 61306
REMARK  9 active torsions:
REMARK  status: ('A' for Active; 'I' for Inactive)
REMARK    1  A    between atoms: N_1  and  C_19
REMARK    2  A    between atoms: C_2  and  C_8
REMARK    3  A    between atoms: C_2  and  C_15
REMARK    4  A    between atoms: C_15  and  O_16
REMARK    5  A    between atoms: O_16  and  C_17
REMARK    6  A    between atoms: C_19  and  C_20
REMARK    7  A    between atoms: C_20  and  O_21
REMARK    8  A    between atoms: O_21  and  C_22
REMARK    9  A    between atoms: C_22  and  C_24
REMARK                            x       y       z     vdW  Elec       q    Type
REMARK                         _______ _______ _______ _____ _____    ______ ____
ROOT
ATOM      1  N   UNL     1      33.100 -15.030 -20.366  0.00  0.00    +0.389 N 
ATOM      2  C   UNL     1      34.410 -17.525 -21.349  0.00  0.00    +0.104 C 
ATOM      3  C   UNL     1      35.172 -16.309 -20.756  0.00  0.00    -0.008 C 
ATOM      4  C   UNL     1      32.975 -17.476 -20.757  0.00  0.00    -0.008 C 
ATOM      5  C   UNL     1      34.432 -14.987 -20.976  0.00  0.00    -0.076 C 
ATOM      6  C   UNL     1      32.290 -16.114 -20.933  0.00  0.00    -0.076 C 
ATOM      7  H   UNL     1      33.217 -15.216 -19.369  0.00  0.00    -0.080 HD
ENDROOT
BRANCH   2   8
ATOM      8  C   UNL     1      34.505 -17.585 -22.880  0.00  0.00    -0.013 C 
ATOM      9  C   UNL     1      34.483 -18.818 -23.532  0.00  0.00    -0.004 C 
ATOM     10  C   UNL     1      34.613 -16.407 -23.620  0.00  0.00    -0.004 C 
ATOM     11  C   UNL     1      34.569 -18.873 -24.924  0.00  0.00    -0.000 C 
ATOM     12  C   UNL     1      34.699 -16.462 -25.011  0.00  0.00    -0.000 C 
ATOM     13  C   UNL     1      34.676 -17.696 -25.662  0.00  0.00    -0.000 C 
ENDBRANCH   2   8
BRANCH   2  15
ATOM     14  O   UNL     1      36.252 -18.931 -20.649  0.00  0.00    -0.250 OA
ATOM     15  C   UNL     1      35.048 -18.784 -20.802  0.00  0.00    +0.320 C 
BRANCH  15  16
ATOM     16  O   UNL     1      34.079 -19.700 -20.520  0.00  0.00    -0.448 OA
BRANCH  16  17
ATOM     17  C   UNL     1      34.539 -20.922 -19.934  0.00  0.00    +0.209 C 
ATOM     18  C   UNL     1      33.352 -21.682 -19.383  0.00  0.00    +0.051 C 
ENDBRANCH  16  17
ENDBRANCH  15  16
ENDBRANCH   2  15
BRANCH   1  19
ATOM     19  C   UNL     1      32.419 -13.744 -20.521  0.00  0.00    -0.045 C 
BRANCH  19  20
ATOM     20  C   UNL     1      32.232 -13.411 -21.992  0.00  0.00    +0.120 C 
BRANCH  20  21
ATOM     21  O   UNL     1      31.795 -12.062 -22.102  0.00  0.00    -0.353 OA
BRANCH  21  22
ATOM     22  C   UNL     1      31.512 -11.500 -20.827  0.00  0.00    +0.171 C 
BRANCH  22  24
ATOM     23  O   UNL     1      32.116  -9.569 -22.150  0.00  0.00    -0.354 OA
ATOM     24  C   UNL     1      31.429  -9.992 -20.960  0.00  0.00    +0.145 C 
ATOM     25  C   UNL     1      32.080  -9.246 -19.808  0.00  0.00    +0.035 C 
ATOM     26  C   UNL     1      32.437  -7.935 -20.463  0.00  0.00    +0.035 C 
ATOM     27  C   UNL     1      32.861  -8.380 -21.846  0.00  0.00    +0.142 C 
ENDBRANCH  22  24
ENDBRANCH  21  22
ENDBRANCH  20  21
ENDBRANCH  19  20
ENDBRANCH   1  19
TORSDOF 9
ENDMDL
MODEL 7
REMARK VINA RESULT:      -7.7      2.444      3.207
REMARK  Name = 61306
REMARK  9 active torsions:
REMARK  status: ('A' for Active; 'I' for Inactive)
REMARK    1  A    between atoms: N_1  and  C_19
REMARK    2  A    between atoms: C_2  and  C_8
REMARK    3  A    between atoms: C_2  and  C_15
REMARK    4  A    between atoms: C_15  and  O_16
REMARK    5  A    between atoms: O_16  and  C_17
REMARK    6  A    between atoms: C_19  and  C_20
REMARK    7  A    between atoms: C_20  and  O_21
REMARK    8  A    between atoms: O_21  and  C_22
REMARK    9  A    between atoms: C_22  and  C_24
REMARK                            x       y       z     vdW  Elec       q    Type
REMARK                         _______ _______ _______ _____ _____    ______ ____
ROOT
ATOM      1  N   UNL     1      34.897 -20.715 -20.448  0.00  0.00    +0.389 N 
ATOM      2  C   UNL     1      34.526 -18.393 -22.286  0.00  0.00    +0.104 C 
ATOM      3  C   UNL     1      35.905 -18.913 -21.798  0.00  0.00    -0.008 C 
ATOM      4  C   UNL     1      33.547 -19.595 -22.202  0.00  0.00    -0.008 C 
ATOM      5  C   UNL     1      35.827 -19.582 -20.422  0.00  0.00    -0.076 C 
ATOM      6  C   UNL     1      33.547 -20.286 -20.831  0.00  0.00    -0.076 C 
ATOM      7  H   UNL     1      35.227 -21.376 -21.153  0.00  0.00    -0.080 HD
ENDROOT
BRANCH   2   8
ATOM      8  C   UNL     1      34.090 -17.116 -21.553  0.00  0.00    -0.013 C 
ATOM      9  C   UNL     1      32.735 -16.864 -21.340  0.00  0.00    -0.004 C 
ATOM     10  C   UNL     1      35.048 -16.209 -21.101  0.00  0.00    -0.004 C 
ATOM     11  C   UNL     1      32.338 -15.703 -20.673  0.00  0.00    -0.000 C 
ATOM     12  C   UNL     1      34.652 -15.049 -20.435  0.00  0.00    -0.000 C 
ATOM     13  C   UNL     1      33.296 -14.797 -20.221  0.00  0.00    -0.000 C 
ENDBRANCH   2   8
BRANCH   2  15
ATOM     14  O   UNL     1      34.757 -18.889 -24.644  0.00  0.00    -0.250 OA
ATOM     15  C   UNL     1      34.652 -18.055 -23.756  0.00  0.00    +0.320 C 
BRANCH  15  16
ATOM     16  O   UNL     1      34.631 -16.701 -23.916  0.00  0.00    -0.448 OA
BRANCH  16  17
ATOM     17  C   UNL     1      34.193 -16.239 -25.197  0.00  0.00    +0.209 C 
ATOM     18  C   UNL     1      33.389 -14.970 -25.016  0.00  0.00    +0.051 C 
ENDBRANCH  16  17
ENDBRANCH  15  16
ENDBRANCH   2  15
BRANCH   1  19
ATOM     19  C   UNL     1      34.873 -21.392 -19.151  0.00  0.00    -0.045 C 
BRANCH  19  20
ATOM     20  C   UNL     1      34.146 -22.723 -19.255  0.00  0.00    +0.120 C 
BRANCH  20  21
ATOM     21  O   UNL     1      32.934 -22.640 -18.516  0.00  0.00    -0.353 OA
BRANCH  21  22
ATOM     22  C   UNL     1      33.144 -22.916 -17.137  0.00  0.00    +0.171 C 
BRANCH  22  24
ATOM     23  O   UNL     1      30.754 -22.667 -16.869  0.00  0.00    -0.354 OA
ATOM     24  C   UNL     1      31.876 -23.509 -16.554  0.00  0.00    +0.145 C 
ATOM     25  C   UNL     1      31.904 -23.626 -15.039  0.00  0.00    +0.035 C 
ATOM     26  C   UNL     1      30.433 -23.587 -14.708  0.00  0.00    +0.035 C 
ATOM     27  C   UNL     1      29.913 -22.578 -15.709  0.00  0.00    +0.142 C 
ENDBRANCH  22  24
ENDBRANCH  21  22
ENDBRANCH  20  21
ENDBRANCH  19  20
ENDBRANCH   1  19
TORSDOF 9
ENDMDL
MODEL 8
REMARK VINA RESULT:      -7.6      3.766      6.674
REMARK  Name = 61306
REMARK  9 active torsions:
REMARK  status: ('A' for Active; 'I' for Inactive)
REMARK    1  A    between atoms: N_1  and  C_19
REMARK    2  A    between atoms: C_2  and  C_8
REMARK    3  A    between atoms: C_2  and  C_15
REMARK    4  A    between atoms: C_15  and  O_16
REMARK    5  A    between atoms: O_16  and  C_17
REMARK    6  A    between atoms: C_19  and  C_20
REMARK    7  A    between atoms: C_20  and  O_21
REMARK    8  A    between atoms: O_21  and  C_22
REMARK    9  A    between atoms: C_22  and  C_24
REMARK                            x       y       z     vdW  Elec       q    Type
REMARK                         _______ _______ _______ _____ _____    ______ ____
ROOT
ATOM      1  N   UNL     1      33.752 -15.249 -23.345  0.00  0.00    +0.389 N 
ATOM      2  C   UNL     1      32.724 -12.487 -22.872  0.00  0.00    +0.104 C 
ATOM      3  C   UNL     1      32.055 -13.522 -23.817  0.00  0.00    -0.008 C 
ATOM      4  C   UNL     1      33.527 -13.303 -21.823  0.00  0.00    -0.008 C 
ATOM      5  C   UNL     1      33.061 -14.513 -24.409  0.00  0.00    -0.076 C 
ATOM      6  C   UNL     1      34.473 -14.337 -22.450  0.00  0.00    -0.076 C 
ATOM      7  H   UNL     1      33.046 -15.737 -22.792  0.00  0.00    -0.080 HD
ENDROOT
BRANCH   2   8
ATOM      8  C   UNL     1      33.513 -11.417 -23.640  0.00  0.00    -0.013 C 
ATOM      9  C   UNL     1      33.551 -10.106 -23.167  0.00  0.00    -0.004 C 
ATOM     10  C   UNL     1      34.192 -11.757 -24.811  0.00  0.00    -0.004 C 
ATOM     11  C   UNL     1      34.269  -9.133 -23.865  0.00  0.00    -0.000 C 
ATOM     12  C   UNL     1      34.910 -10.785 -25.508  0.00  0.00    -0.000 C 
ATOM     13  C   UNL     1      34.947  -9.473 -25.035  0.00  0.00    -0.000 C 
ENDBRANCH   2   8
BRANCH   2  15
ATOM     14  O   UNL     1      30.753 -11.103 -22.627  0.00  0.00    -0.250 OA
ATOM     15  C   UNL     1      31.626 -11.781 -22.105  0.00  0.00    +0.320 C 
BRANCH  15  16
ATOM     16  O   UNL     1      31.774 -12.024 -20.771  0.00  0.00    -0.448 OA
BRANCH  16  17
ATOM     17  C   UNL     1      31.052 -11.146 -19.903  0.00  0.00    +0.209 C 
ATOM     18  C   UNL     1      31.975 -10.039 -19.441  0.00  0.00    +0.051 C 
ENDBRANCH  16  17
ENDBRANCH  15  16
ENDBRANCH   2  15
BRANCH   1  19
ATOM     19  C   UNL     1      34.665 -16.241 -23.913  0.00  0.00    -0.045 C 
BRANCH  19  20
ATOM     20  C   UNL     1      35.305 -17.072 -22.814  0.00  0.00    +0.120 C 
BRANCH  20  21
ATOM     21  O   UNL     1      34.289 -17.812 -22.150  0.00  0.00    -0.353 OA
BRANCH  21  22
ATOM     22  C   UNL     1      34.593 -19.200 -22.115  0.00  0.00    +0.171 C 
BRANCH  22  24
ATOM     23  O   UNL     1      35.465 -20.593 -20.341  0.00  0.00    -0.354 OA
ATOM     24  C   UNL     1      34.385 -19.716 -20.704  0.00  0.00    +0.145 C 
ATOM     25  C   UNL     1      33.109 -20.523 -20.536  0.00  0.00    +0.035 C 
ATOM     26  C   UNL     1      33.462 -21.402 -19.363  0.00  0.00    +0.035 C 
ATOM     27  C   UNL     1      34.918 -21.716 -19.634  0.00  0.00    +0.142 C 
ENDBRANCH  22  24
ENDBRANCH  21  22
ENDBRANCH  20  21
ENDBRANCH  19  20
ENDBRANCH   1  19
TORSDOF 9
ENDMDL
MODEL 9
REMARK VINA RESULT:      -7.5      8.285     11.986
REMARK  Name = 61306
REMARK  9 active torsions:
REMARK  status: ('A' for Active; 'I' for Inactive)
REMARK    1  A    between atoms: N_1  and  C_19
REMARK    2  A    between atoms: C_2  and  C_8
REMARK    3  A    between atoms: C_2  and  C_15
REMARK    4  A    between atoms: C_15  and  O_16
REMARK    5  A    between atoms: O_16  and  C_17
REMARK    6  A    between atoms: C_19  and  C_20
REMARK    7  A    between atoms: C_20  and  O_21
REMARK    8  A    between atoms: O_21  and  C_22
REMARK    9  A    between atoms: C_22  and  C_24
REMARK                            x       y       z     vdW  Elec       q    Type
REMARK                         _______ _______ _______ _____ _____    ______ ____
ROOT
ATOM      1  N   UNL     1      31.847  -9.282 -22.383  0.00  0.00    +0.389 N 
ATOM      2  C   UNL     1      31.763  -6.389 -23.107  0.00  0.00    +0.104 C 
ATOM      3  C   UNL     1      30.649  -7.413 -23.458  0.00  0.00    -0.008 C 
ATOM      4  C   UNL     1      32.498  -6.947 -21.859  0.00  0.00    -0.008 C 
ATOM      5  C   UNL     1      31.191  -8.836 -23.616  0.00  0.00    -0.076 C 
ATOM      6  C   UNL     1      32.964  -8.400 -22.027  0.00  0.00    -0.076 C 
ATOM      7  H   UNL     1      31.160  -9.239 -21.629  0.00  0.00    -0.080 HD
ENDROOT
BRANCH   2   8
ATOM      8  C   UNL     1      32.648  -6.049 -24.315  0.00  0.00    -0.013 C 
ATOM      9  C   UNL     1      32.149  -5.248 -25.342  0.00  0.00    -0.004 C 
ATOM     10  C   UNL     1      33.952  -6.541 -24.385  0.00  0.00    -0.004 C 
ATOM     11  C   UNL     1      32.954  -4.939 -26.440  0.00  0.00    -0.000 C 
ATOM     12  C   UNL     1      34.756  -6.232 -25.482  0.00  0.00    -0.000 C 
ATOM     13  C   UNL     1      34.256  -5.431 -26.509  0.00  0.00    -0.000 C 
ENDBRANCH   2   8
BRANCH   2  15
ATOM     14  O   UNL     1      29.997  -5.063 -22.115  0.00  0.00    -0.250 OA
ATOM     15  C   UNL     1      31.090  -5.108 -22.661  0.00  0.00    +0.320 C 
BRANCH  15  16
ATOM     16  O   UNL     1      31.887  -4.044 -22.965  0.00  0.00    -0.448 OA
BRANCH  16  17
ATOM     17  C   UNL     1      31.234  -2.772 -22.987  0.00  0.00    +0.209 C 
ATOM     18  C   UNL     1      32.067  -1.803 -23.798  0.00  0.00    +0.051 C 
ENDBRANCH  16  17
ENDBRANCH  15  16
ENDBRANCH   2  15
BRANCH   1  19
ATOM     19  C   UNL     1      32.306 -10.665 -22.514  0.00  0.00    -0.045 C 
BRANCH  19  20
ATOM     20  C   UNL     1      31.372 -11.613 -21.778  0.00  0.00    +0.120 C 
BRANCH  20  21
ATOM     21  O   UNL     1      31.965 -12.904 -21.745  0.00  0.00    -0.353 OA
BRANCH  21  22
ATOM     22  C   UNL     1      32.859 -13.095 -22.834  0.00  0.00    +0.171 C 
BRANCH  22  24
ATOM     23  O   UNL     1      34.504 -14.753 -23.459  0.00  0.00    -0.354 OA
ATOM     24  C   UNL     1      34.027 -13.944 -22.371  0.00  0.00    +0.145 C 
ATOM     25  C   UNL     1      33.668 -14.908 -21.252  0.00  0.00    +0.035 C 
ATOM     26  C   UNL     1      34.701 -15.990 -21.446  0.00  0.00    +0.035 C 
ATOM     27  C   UNL     1      34.797 -16.065 -22.955  0.00  0.00    +0.142 C 
ENDBRANCH  22  24
ENDBRANCH  21  22
ENDBRANCH  20  21
ENDBRANCH  19  20
ENDBRANCH   1  19
TORSDOF 9
ENDMDL
