MODEL 1
REMARK VINA RESULT:      -6.0      0.000      0.000
REMARK  Name = 448674
REMARK  7 active torsions:
REMARK  status: ('A' for Active; 'I' for Inactive)
REMARK    1  A    between atoms: P_1  and  O_3
REMARK    2  A    between atoms: P_1  and  O_5
REMARK    3  A    between atoms: P_1  and  O_8
REMARK    4  A    between atoms: O_5  and  C_6
REMARK    5  A    between atoms: O_8  and  P_9
REMARK    6  A    between atoms: P_9  and  O_11
REMARK    7  A    between atoms: P_9  and  O_13
REMARK                            x       y       z     vdW  Elec       q    Type
REMARK                         _______ _______ _______ _____ _____    ______ ____
ROOT
ATOM      1  P   UNL     1      37.281 -26.152 -14.826  0.00  0.00    +0.484 P 
ATOM      2  O   UNL     1      36.455 -27.023 -15.728  0.00  0.00    -0.227 OA
ENDROOT
BRANCH   1   3
ATOM      3  O   UNL     1      37.589 -24.679 -15.419  0.00  0.00    -0.302 OA
ATOM      4  H   UNL     1      38.545 -24.578 -15.553  0.00  0.00    +0.222 HD
ENDBRANCH   1   3
BRANCH   1   5
ATOM      5  O   UNL     1      36.629 -25.873 -13.371  0.00  0.00    -0.273 OA
BRANCH   5   6
ATOM      6  C   UNL     1      36.323 -24.548 -12.974  0.00  0.00    +0.154 C 
ATOM      7  C   UNL     1      37.183 -24.178 -11.784  0.00  0.00    +0.035 C 
ENDBRANCH   5   6
ENDBRANCH   1   5
BRANCH   1   8
ATOM      8  O   UNL     1      38.753 -26.739 -14.506  0.00  0.00    -0.186 OA
BRANCH   8   9
ATOM      9  P   UNL     1      40.211 -26.048 -14.591  0.00  0.00    +0.481 P 
ATOM     10  O   UNL     1      41.324 -26.860 -13.996  0.00  0.00    -0.227 OA
BRANCH   9  11
ATOM     11  O   UNL     1      39.973 -24.602 -13.910  0.00  0.00    -0.302 OA
ATOM     12  H   UNL     1      40.748 -24.363 -13.379  0.00  0.00    +0.222 HD
ENDBRANCH   9  11
BRANCH   9  13
ATOM     13  O   UNL     1      40.371 -25.704 -16.163  0.00  0.00    -0.302 OA
ATOM     14  H   UNL     1      39.772 -24.979 -16.396  0.00  0.00    +0.222 HD
ENDBRANCH   9  13
ENDBRANCH   8   9
ENDBRANCH   1   8
TORSDOF 7
ENDMDL
MODEL 2
REMARK VINA RESULT:      -5.8      1.699      2.586
REMARK  Name = 448674
REMARK  7 active torsions:
REMARK  status: ('A' for Active; 'I' for Inactive)
REMARK    1  A    between atoms: P_1  and  O_3
REMARK    2  A    between atoms: P_1  and  O_5
REMARK    3  A    between atoms: P_1  and  O_8
REMARK    4  A    between atoms: O_5  and  C_6
REMARK    5  A    between atoms: O_8  and  P_9
REMARK    6  A    between atoms: P_9  and  O_11
REMARK    7  A    between atoms: P_9  and  O_13
REMARK                            x       y       z     vdW  Elec       q    Type
REMARK                         _______ _______ _______ _____ _____    ______ ____
ROOT
ATOM      1  P   UNL     1      37.591 -25.159 -12.550  0.00  0.00    +0.484 P 
ATOM      2  O   UNL     1      37.603 -24.516 -11.193  0.00  0.00    -0.227 OA
ENDROOT
BRANCH   1   3
ATOM      3  O   UNL     1      36.867 -26.605 -12.597  0.00  0.00    -0.302 OA
ATOM      4  H   UNL     1      37.194 -27.154 -11.867  0.00  0.00    +0.222 HD
ENDBRANCH   1   3
BRANCH   1   5
ATOM      5  O   UNL     1      36.847 -24.299 -13.701  0.00  0.00    -0.273 OA
BRANCH   5   6
ATOM      6  C   UNL     1      35.556 -24.677 -14.147  0.00  0.00    +0.154 C 
ATOM      7  C   UNL     1      34.520 -24.099 -13.207  0.00  0.00    +0.035 C 
ENDBRANCH   5   6
ENDBRANCH   1   5
BRANCH   1   8
ATOM      8  O   UNL     1      39.060 -25.460 -13.153  0.00  0.00    -0.186 OA
BRANCH   8   9
ATOM      9  P   UNL     1      39.548 -25.744 -14.667  0.00  0.00    +0.481 P 
ATOM     10  O   UNL     1      40.867 -26.450 -14.778  0.00  0.00    -0.227 OA
BRANCH   9  11
ATOM     11  O   UNL     1      39.490 -24.281 -15.351  0.00  0.00    -0.302 OA
ATOM     12  H   UNL     1      40.375 -23.886 -15.346  0.00  0.00    +0.222 HD
ENDBRANCH   9  11
BRANCH   9  13
ATOM     13  O   UNL     1      38.291 -26.520 -15.325  0.00  0.00    -0.302 OA
ATOM     14  H   UNL     1      38.324 -27.456 -15.075  0.00  0.00    +0.222 HD
ENDBRANCH   9  13
ENDBRANCH   8   9
ENDBRANCH   1   8
TORSDOF 7
ENDMDL
MODEL 3
REMARK VINA RESULT:      -5.5      2.842      4.508
REMARK  Name = 448674
REMARK  7 active torsions:
REMARK  status: ('A' for Active; 'I' for Inactive)
REMARK    1  A    between atoms: P_1  and  O_3
REMARK    2  A    between atoms: P_1  and  O_5
REMARK    3  A    between atoms: P_1  and  O_8
REMARK    4  A    between atoms: O_5  and  C_6
REMARK    5  A    between atoms: O_8  and  P_9
REMARK    6  A    between atoms: P_9  and  O_11
REMARK    7  A    between atoms: P_9  and  O_13
REMARK                            x       y       z     vdW  Elec       q    Type
REMARK                         _______ _______ _______ _____ _____    ______ ____
ROOT
ATOM      1  P   UNL     1      37.281 -25.489 -13.261  0.00  0.00    +0.484 P 
ATOM      2  O   UNL     1      37.738 -26.858 -13.674  0.00  0.00    -0.227 OA
ENDROOT
BRANCH   1   3
ATOM      3  O   UNL     1      38.473 -24.406 -13.107  0.00  0.00    -0.302 OA
ATOM      4  H   UNL     1      38.189 -23.557 -13.482  0.00  0.00    +0.222 HD
ENDBRANCH   1   3
BRANCH   1   5
ATOM      5  O   UNL     1      36.231 -24.791 -14.275  0.00  0.00    -0.273 OA
BRANCH   5   6
ATOM      6  C   UNL     1      36.693 -23.885 -15.262  0.00  0.00    +0.154 C 
ATOM      7  C   UNL     1      35.707 -22.744 -15.385  0.00  0.00    +0.035 C 
ENDBRANCH   5   6
ENDBRANCH   1   5
BRANCH   1   8
ATOM      8  O   UNL     1      36.549 -25.441 -11.822  0.00  0.00    -0.186 OA
BRANCH   8   9
ATOM      9  P   UNL     1      35.913 -24.207 -10.995  0.00  0.00    +0.481 P 
ATOM     10  O   UNL     1      35.350 -24.575  -9.654  0.00  0.00    -0.227 OA
BRANCH   9  11
ATOM     11  O   UNL     1      34.853 -23.575 -12.037  0.00  0.00    -0.302 OA
ATOM     12  H   UNL     1      33.985 -23.500 -11.611  0.00  0.00    +0.222 HD
ENDBRANCH   9  11
BRANCH   9  13
ATOM     13  O   UNL     1      37.110 -23.120 -10.967  0.00  0.00    -0.302 OA
ATOM     14  H   UNL     1      37.445 -22.987 -11.867  0.00  0.00    +0.222 HD
ENDBRANCH   9  13
ENDBRANCH   8   9
ENDBRANCH   1   8
TORSDOF 7
ENDMDL
MODEL 4
REMARK VINA RESULT:      -5.5      2.709      4.192
REMARK  Name = 448674
REMARK  7 active torsions:
REMARK  status: ('A' for Active; 'I' for Inactive)
REMARK    1  A    between atoms: P_1  and  O_3
REMARK    2  A    between atoms: P_1  and  O_5
REMARK    3  A    between atoms: P_1  and  O_8
REMARK    4  A    between atoms: O_5  and  C_6
REMARK    5  A    between atoms: O_8  and  P_9
REMARK    6  A    between atoms: P_9  and  O_11
REMARK    7  A    between atoms: P_9  and  O_13
REMARK                            x       y       z     vdW  Elec       q    Type
REMARK                         _______ _______ _______ _____ _____    ______ ____
ROOT
ATOM      1  P   UNL     1      36.651 -24.774 -14.793  0.00  0.00    +0.484 P 
ATOM      2  O   UNL     1      36.492 -23.769 -15.896  0.00  0.00    -0.227 OA
ENDROOT
BRANCH   1   3
ATOM      3  O   UNL     1      35.439 -25.839 -14.680  0.00  0.00    -0.302 OA
ATOM      4  H   UNL     1      34.595 -25.363 -14.622  0.00  0.00    +0.222 HD
ENDBRANCH   1   3
BRANCH   1   5
ATOM      5  O   UNL     1      37.983 -25.688 -14.897  0.00  0.00    -0.273 OA
BRANCH   5   6
ATOM      6  C   UNL     1      39.258 -25.076 -14.982  0.00  0.00    +0.154 C 
ATOM      7  C   UNL     1      40.169 -25.683 -13.937  0.00  0.00    +0.035 C 
ENDBRANCH   5   6
ENDBRANCH   1   5
BRANCH   1   8
ATOM      8  O   UNL     1      36.716 -24.128 -13.313  0.00  0.00    -0.186 OA
BRANCH   8   9
ATOM      9  P   UNL     1      36.371 -24.757 -11.865  0.00  0.00    +0.481 P 
ATOM     10  O   UNL     1      36.880 -23.961 -10.699  0.00  0.00    -0.227 OA
BRANCH   9  11
ATOM     11  O   UNL     1      36.945 -26.264 -11.973  0.00  0.00    -0.302 OA
ATOM     12  H   UNL     1      36.314 -26.880 -11.573  0.00  0.00    +0.222 HD
ENDBRANCH   9  11
BRANCH   9  13
ATOM     13  O   UNL     1      34.768 -24.958 -11.917  0.00  0.00    -0.302 OA
ATOM     14  H   UNL     1      34.477 -25.432 -11.122  0.00  0.00    +0.222 HD
ENDBRANCH   9  13
ENDBRANCH   8   9
ENDBRANCH   1   8
TORSDOF 7
ENDMDL
MODEL 5
REMARK VINA RESULT:      -5.4      2.620      4.344
REMARK  Name = 448674
REMARK  7 active torsions:
REMARK  status: ('A' for Active; 'I' for Inactive)
REMARK    1  A    between atoms: P_1  and  O_3
REMARK    2  A    between atoms: P_1  and  O_5
REMARK    3  A    between atoms: P_1  and  O_8
REMARK    4  A    between atoms: O_5  and  C_6
REMARK    5  A    between atoms: O_8  and  P_9
REMARK    6  A    between atoms: P_9  and  O_11
REMARK    7  A    between atoms: P_9  and  O_13
REMARK                            x       y       z     vdW  Elec       q    Type
REMARK                         _______ _______ _______ _____ _____    ______ ____
ROOT
ATOM      1  P   UNL     1      36.646 -25.895 -14.445  0.00  0.00    +0.484 P 
ATOM      2  O   UNL     1      36.189 -26.548 -15.717  0.00  0.00    -0.227 OA
ENDROOT
BRANCH   1   3
ATOM      3  O   UNL     1      36.858 -26.916 -13.209  0.00  0.00    -0.302 OA
ATOM      4  H   UNL     1      36.074 -26.901 -12.638  0.00  0.00    +0.222 HD
ENDBRANCH   1   3
BRANCH   1   5
ATOM      5  O   UNL     1      38.051 -25.100 -14.558  0.00  0.00    -0.273 OA
BRANCH   5   6
ATOM      6  C   UNL     1      39.083 -25.349 -13.620  0.00  0.00    +0.154 C 
ATOM      7  C   UNL     1      40.319 -25.817 -14.358  0.00  0.00    +0.035 C 
ENDBRANCH   5   6
ENDBRANCH   1   5
BRANCH   1   8
ATOM      8  O   UNL     1      35.609 -24.806 -13.852  0.00  0.00    -0.186 OA
BRANCH   8   9
ATOM      9  P   UNL     1      35.449 -24.194 -12.365  0.00  0.00    +0.481 P 
ATOM     10  O   UNL     1      35.755 -25.157 -11.255  0.00  0.00    -0.227 OA
BRANCH   9  11
ATOM     11  O   UNL     1      33.943 -23.606 -12.370  0.00  0.00    -0.302 OA
ATOM     12  H   UNL     1      33.971 -22.644 -12.255  0.00  0.00    +0.222 HD
ENDBRANCH   9  11
BRANCH   9  13
ATOM     13  O   UNL     1      36.373 -22.868 -12.404  0.00  0.00    -0.302 OA
ATOM     14  H   UNL     1      37.286 -23.105 -12.180  0.00  0.00    +0.222 HD
ENDBRANCH   9  13
ENDBRANCH   8   9
ENDBRANCH   1   8
TORSDOF 7
ENDMDL
MODEL 6
REMARK VINA RESULT:      -5.3      2.940      4.481
REMARK  Name = 448674
REMARK  7 active torsions:
REMARK  status: ('A' for Active; 'I' for Inactive)
REMARK    1  A    between atoms: P_1  and  O_3
REMARK    2  A    between atoms: P_1  and  O_5
REMARK    3  A    between atoms: P_1  and  O_8
REMARK    4  A    between atoms: O_5  and  C_6
REMARK    5  A    between atoms: O_8  and  P_9
REMARK    6  A    between atoms: P_9  and  O_11
REMARK    7  A    between atoms: P_9  and  O_13
REMARK                            x       y       z     vdW  Elec       q    Type
REMARK                         _______ _______ _______ _____ _____    ______ ____
ROOT
ATOM      1  P   UNL     1      37.579 -23.683 -12.125  0.00  0.00    +0.484 P 
ATOM      2  O   UNL     1      37.332 -24.465 -10.868  0.00  0.00    -0.227 OA
ENDROOT
BRANCH   1   3
ATOM      3  O   UNL     1      37.870 -22.109 -11.886  0.00  0.00    -0.302 OA
ATOM      4  H   UNL     1      37.675 -21.881 -10.964  0.00  0.00    +0.222 HD
ENDBRANCH   1   3
BRANCH   1   5
ATOM      5  O   UNL     1      38.835 -24.196 -13.006  0.00  0.00    -0.273 OA
BRANCH   5   6
ATOM      6  C   UNL     1      38.985 -25.577 -13.290  0.00  0.00    +0.154 C 
ATOM      7  C   UNL     1      39.967 -25.744 -14.429  0.00  0.00    +0.035 C 
ENDBRANCH   5   6
ENDBRANCH   1   5
BRANCH   1   8
ATOM      8  O   UNL     1      36.335 -23.677 -13.157  0.00  0.00    -0.186 OA
BRANCH   8   9
ATOM      9  P   UNL     1      36.285 -23.461 -14.757  0.00  0.00    +0.481 P 
ATOM     10  O   UNL     1      36.207 -24.727 -15.558  0.00  0.00    -0.227 OA
BRANCH   9  11
ATOM     11  O   UNL     1      37.583 -22.542 -15.045  0.00  0.00    -0.302 OA
ATOM     12  H   UNL     1      37.665 -21.872 -14.350  0.00  0.00    +0.222 HD
ENDBRANCH   9  11
BRANCH   9  13
ATOM     13  O   UNL     1      35.047 -22.440 -14.958  0.00  0.00    -0.302 OA
ATOM     14  H   UNL     1      35.096 -22.045 -15.843  0.00  0.00    +0.222 HD
ENDBRANCH   9  13
ENDBRANCH   8   9
ENDBRANCH   1   8
TORSDOF 7
ENDMDL
MODEL 7
REMARK VINA RESULT:      -5.2      8.465      9.984
REMARK  Name = 448674
REMARK  7 active torsions:
REMARK  status: ('A' for Active; 'I' for Inactive)
REMARK    1  A    between atoms: P_1  and  O_3
REMARK    2  A    between atoms: P_1  and  O_5
REMARK    3  A    between atoms: P_1  and  O_8
REMARK    4  A    between atoms: O_5  and  C_6
REMARK    5  A    between atoms: O_8  and  P_9
REMARK    6  A    between atoms: P_9  and  O_11
REMARK    7  A    between atoms: P_9  and  O_13
REMARK                            x       y       z     vdW  Elec       q    Type
REMARK                         _______ _______ _______ _____ _____    ______ ____
ROOT
ATOM      1  P   UNL     1      29.321 -24.790 -14.933  0.00  0.00    +0.484 P 
ATOM      2  O   UNL     1      30.046 -25.392 -16.102  0.00  0.00    -0.227 OA
ENDROOT
BRANCH   1   3
ATOM      3  O   UNL     1      28.296 -25.798 -14.192  0.00  0.00    -0.302 OA
ATOM      4  H   UNL     1      27.423 -25.737 -14.610  0.00  0.00    +0.222 HD
ENDBRANCH   1   3
BRANCH   1   5
ATOM      5  O   UNL     1      30.280 -24.245 -13.749  0.00  0.00    -0.273 OA
BRANCH   5   6
ATOM      6  C   UNL     1      31.678 -24.466 -13.811  0.00  0.00    +0.154 C 
ATOM      7  C   UNL     1      32.340 -23.267 -14.454  0.00  0.00    +0.035 C 
ENDBRANCH   5   6
ENDBRANCH   1   5
BRANCH   1   8
ATOM      8  O   UNL     1      28.388 -23.526 -15.314  0.00  0.00    -0.186 OA
BRANCH   8   9
ATOM      9  P   UNL     1      28.193 -22.733 -16.708  0.00  0.00    +0.481 P 
ATOM     10  O   UNL     1      27.278 -21.546 -16.631  0.00  0.00    -0.227 OA
BRANCH   9  11
ATOM     11  O   UNL     1      27.730 -23.895 -17.730  0.00  0.00    -0.302 OA
ATOM     12  H   UNL     1      28.405 -24.010 -18.416  0.00  0.00    +0.222 HD
ENDBRANCH   9  11
BRANCH   9  13
ATOM     13  O   UNL     1      29.709 -22.407 -17.167  0.00  0.00    -0.302 OA
ATOM     14  H   UNL     1      29.826 -21.446 -17.232  0.00  0.00    +0.222 HD
ENDBRANCH   9  13
ENDBRANCH   8   9
ENDBRANCH   1   8
TORSDOF 7
ENDMDL
MODEL 8
REMARK VINA RESULT:      -5.2      3.039      5.021
REMARK  Name = 448674
REMARK  7 active torsions:
REMARK  status: ('A' for Active; 'I' for Inactive)
REMARK    1  A    between atoms: P_1  and  O_3
REMARK    2  A    between atoms: P_1  and  O_5
REMARK    3  A    between atoms: P_1  and  O_8
REMARK    4  A    between atoms: O_5  and  C_6
REMARK    5  A    between atoms: O_8  and  P_9
REMARK    6  A    between atoms: P_9  and  O_11
REMARK    7  A    between atoms: P_9  and  O_13
REMARK                            x       y       z     vdW  Elec       q    Type
REMARK                         _______ _______ _______ _____ _____    ______ ____
ROOT
ATOM      1  P   UNL     1      37.542 -23.494 -12.157  0.00  0.00    +0.484 P 
ATOM      2  O   UNL     1      37.472 -24.381 -10.948  0.00  0.00    -0.227 OA
ENDROOT
BRANCH   1   3
ATOM      3  O   UNL     1      38.084 -22.000 -11.858  0.00  0.00    -0.302 OA
ATOM      4  H   UNL     1      38.883 -21.834 -12.384  0.00  0.00    +0.222 HD
ENDBRANCH   1   3
BRANCH   1   5
ATOM      5  O   UNL     1      38.497 -24.040 -13.344  0.00  0.00    -0.273 OA
BRANCH   5   6
ATOM      6  C   UNL     1      39.058 -25.339 -13.261  0.00  0.00    +0.154 C 
ATOM      7  C   UNL     1      39.116 -25.941 -14.649  0.00  0.00    +0.035 C 
ENDBRANCH   5   6
ENDBRANCH   1   5
BRANCH   1   8
ATOM      8  O   UNL     1      36.115 -23.235 -12.871  0.00  0.00    -0.186 OA
BRANCH   8   9
ATOM      9  P   UNL     1      34.928 -24.255 -13.270  0.00  0.00    +0.481 P 
ATOM     10  O   UNL     1      33.755 -23.615 -13.954  0.00  0.00    -0.227 OA
BRANCH   9  11
ATOM     11  O   UNL     1      34.592 -24.993 -11.873  0.00  0.00    -0.302 OA
ATOM     12  H   UNL     1      35.404 -25.081 -11.350  0.00  0.00    +0.222 HD
ENDBRANCH   9  11
BRANCH   9  13
ATOM     13  O   UNL     1      35.688 -25.396 -14.128  0.00  0.00    -0.302 OA
ATOM     14  H   UNL     1      36.094 -24.993 -14.911  0.00  0.00    +0.222 HD
ENDBRANCH   9  13
ENDBRANCH   8   9
ENDBRANCH   1   8
TORSDOF 7
ENDMDL
MODEL 9
REMARK VINA RESULT:      -5.2     10.153     11.576
REMARK  Name = 448674
REMARK  7 active torsions:
REMARK  status: ('A' for Active; 'I' for Inactive)
REMARK    1  A    between atoms: P_1  and  O_3
REMARK    2  A    between atoms: P_1  and  O_5
REMARK    3  A    between atoms: P_1  and  O_8
REMARK    4  A    between atoms: O_5  and  C_6
REMARK    5  A    between atoms: O_8  and  P_9
REMARK    6  A    between atoms: P_9  and  O_11
REMARK    7  A    between atoms: P_9  and  O_13
REMARK                            x       y       z     vdW  Elec       q    Type
REMARK                         _______ _______ _______ _____ _____    ______ ____
ROOT
ATOM      1  P   UNL     1      35.732 -18.699 -21.319  0.00  0.00    +0.484 P 
ATOM      2  O   UNL     1      36.693 -19.404 -20.406  0.00  0.00    -0.227 OA
ENDROOT
BRANCH   1   3
ATOM      3  O   UNL     1      36.382 -18.193 -22.711  0.00  0.00    -0.302 OA
ATOM      4  H   UNL     1      35.738 -17.647 -23.189  0.00  0.00    +0.222 HD
ENDBRANCH   1   3
BRANCH   1   5
ATOM      5  O   UNL     1      34.452 -19.581 -21.768  0.00  0.00    -0.273 OA
BRANCH   5   6
ATOM      6  C   UNL     1      33.299 -19.629 -20.945  0.00  0.00    +0.154 C 
ATOM      7  C   UNL     1      33.406 -20.818 -20.015  0.00  0.00    +0.035 C 
ENDBRANCH   5   6
ENDBRANCH   1   5
BRANCH   1   8
ATOM      8  O   UNL     1      35.096 -17.350 -20.695  0.00  0.00    -0.186 OA
BRANCH   8   9
ATOM      9  P   UNL     1      34.598 -15.986 -21.403  0.00  0.00    +0.481 P 
ATOM     10  O   UNL     1      35.156 -15.753 -22.777  0.00  0.00    -0.227 OA
BRANCH   9  11
ATOM     11  O   UNL     1      34.959 -14.852 -20.311  0.00  0.00    -0.302 OA
ATOM     12  H   UNL     1      35.812 -15.058 -19.900  0.00  0.00    +0.222 HD
ENDBRANCH   9  11
BRANCH   9  13
ATOM     13  O   UNL     1      32.986 -16.090 -21.322  0.00  0.00    -0.302 OA
ATOM     14  H   UNL     1      32.594 -15.586 -22.052  0.00  0.00    +0.222 HD
ENDBRANCH   9  13
ENDBRANCH   8   9
ENDBRANCH   1   8
TORSDOF 7
ENDMDL
