MODEL 1
REMARK VINA RESULT:      -8.4      0.000      0.000
REMARK  Name = 11622909
REMARK  6 active torsions:
REMARK  status: ('A' for Active; 'I' for Inactive)
REMARK    1  A    between atoms: C_1  and  C_4
REMARK    2  A    between atoms: C_1  and  C_12
REMARK    3  A    between atoms: C_2  and  C_17
REMARK    4  A    between atoms: N_11  and  C_13
REMARK    5  A    between atoms: N_11  and  C_15
REMARK    6  A    between atoms: C_17  and  N_18
REMARK                            x       y       z     vdW  Elec       q    Type
REMARK                         _______ _______ _______ _____ _____    ______ ____
ROOT
ATOM      1  C   UNL     1      35.228 -18.069 -21.781  0.00  0.00    +0.086 C 
ATOM      2  C   UNL     1      35.382 -18.135 -23.266  0.00  0.00    -0.009 C 
ATOM      3  C   UNL     1      36.589 -18.221 -22.379  0.00  0.00    +0.011 C 
ENDROOT
BRANCH   1   4
ATOM      4  C   UNL     1      34.647 -19.212 -21.036  0.00  0.00    -0.015 C 
ATOM      5  C   UNL     1      35.481 -20.187 -20.480  0.00  0.00    -0.004 C 
ATOM      6  C   UNL     1      33.261 -19.321 -20.882  0.00  0.00    -0.004 C 
ATOM      7  C   UNL     1      34.934 -21.261 -19.777  0.00  0.00    -0.000 C 
ATOM      8  C   UNL     1      32.714 -20.394 -20.179  0.00  0.00    -0.000 C 
ATOM      9  C   UNL     1      33.551 -21.365 -19.627  0.00  0.00    -0.000 C 
ENDBRANCH   1   4
BRANCH   1  12
ATOM     10  O   UNL     1      35.314 -16.464 -20.084  0.00  0.00    -0.275 OA
ATOM     11  N   UNL     1      34.133 -15.864 -22.001  0.00  0.00    -0.279 N 
ATOM     12  C   UNL     1      34.897 -16.727 -21.210  0.00  0.00    +0.228 C 
BRANCH  11  13
ATOM     13  C   UNL     1      33.228 -14.878 -21.424  0.00  0.00    +0.093 C 
ATOM     14  C   UNL     1      32.156 -15.534 -20.616  0.00  0.00    +0.023 C 
ENDBRANCH  11  13
BRANCH  11  15
ATOM     15  C   UNL     1      34.190 -15.889 -23.460  0.00  0.00    +0.093 C 
ATOM     16  C   UNL     1      33.478 -14.716 -24.051  0.00  0.00    +0.023 C 
ENDBRANCH  11  15
ENDBRANCH   1  12
BRANCH   2  17
ATOM     17  C   UNL     1      34.961 -19.344 -24.021  0.00  0.00    -0.085 C 
BRANCH  17  18
ATOM     18  N   UNL     1      34.094 -19.002 -25.146  0.00  0.00    +0.380 N 
ATOM     19  H   UNL     1      33.793 -18.031 -25.058  0.00  0.00    -0.089 HD
ATOM     20  H   UNL     1      33.277 -19.613 -25.143  0.00  0.00    -0.089 HD
ATOM     21  H   UNL     1      34.607 -19.122 -26.019  0.00  0.00    -0.089 HD
ENDBRANCH  17  18
ENDBRANCH   2  17
TORSDOF 6
ENDMDL
MODEL 2
REMARK VINA RESULT:      -7.5      8.354     10.448
REMARK  Name = 11622909
REMARK  6 active torsions:
REMARK  status: ('A' for Active; 'I' for Inactive)
REMARK    1  A    between atoms: C_1  and  C_4
REMARK    2  A    between atoms: C_1  and  C_12
REMARK    3  A    between atoms: C_2  and  C_17
REMARK    4  A    between atoms: N_11  and  C_13
REMARK    5  A    between atoms: N_11  and  C_15
REMARK    6  A    between atoms: C_17  and  N_18
REMARK                            x       y       z     vdW  Elec       q    Type
REMARK                         _______ _______ _______ _____ _____    ______ ____
ROOT
ATOM      1  C   UNL     1      32.581  -8.255 -23.124  0.00  0.00    +0.086 C 
ATOM      2  C   UNL     1      33.699  -8.700 -24.011  0.00  0.00    -0.009 C 
ATOM      3  C   UNL     1      33.933  -7.634 -22.980  0.00  0.00    +0.011 C 
ENDROOT
BRANCH   1   4
ATOM      4  C   UNL     1      32.085  -9.139 -22.041  0.00  0.00    -0.015 C 
ATOM      5  C   UNL     1      31.365 -10.297 -22.351  0.00  0.00    -0.004 C 
ATOM      6  C   UNL     1      32.337  -8.822 -20.702  0.00  0.00    -0.004 C 
ATOM      7  C   UNL     1      30.901 -11.129 -21.333  0.00  0.00    -0.000 C 
ATOM      8  C   UNL     1      31.874  -9.654 -19.684  0.00  0.00    -0.000 C 
ATOM      9  C   UNL     1      31.156 -10.808 -19.999  0.00  0.00    -0.000 C 
ENDBRANCH   1   4
BRANCH   1  12
ATOM     10  O   UNL     1      30.760  -7.955 -24.558  0.00  0.00    -0.275 OA
ATOM     11  N   UNL     1      31.485  -6.059 -23.415  0.00  0.00    -0.279 N 
ATOM     12  C   UNL     1      31.526  -7.412 -23.765  0.00  0.00    +0.228 C 
BRANCH  11  13
ATOM     13  C   UNL     1      31.016  -5.032 -24.337  0.00  0.00    +0.093 C 
ATOM     14  C   UNL     1      32.079  -4.658 -25.318  0.00  0.00    +0.023 C 
ENDBRANCH  11  13
BRANCH  11  15
ATOM     15  C   UNL     1      31.907  -5.581 -22.102  0.00  0.00    +0.093 C 
ATOM     16  C   UNL     1      30.746  -5.447 -21.172  0.00  0.00    +0.023 C 
ENDBRANCH  11  15
ENDBRANCH   1  12
BRANCH   2  17
ATOM     17  C   UNL     1      34.336 -10.030 -23.822  0.00  0.00    -0.085 C 
BRANCH  17  18
ATOM     18  N   UNL     1      35.412 -10.252 -24.785  0.00  0.00    +0.380 N 
ATOM     19  H   UNL     1      35.013 -10.518 -25.684  0.00  0.00    -0.089 HD
ATOM     20  H   UNL     1      36.020 -10.999 -24.448  0.00  0.00    -0.089 HD
ATOM     21  H   UNL     1      35.953  -9.394 -24.893  0.00  0.00    -0.089 HD
ENDBRANCH  17  18
ENDBRANCH   2  17
TORSDOF 6
ENDMDL
MODEL 3
REMARK VINA RESULT:      -7.2      1.743      4.683
REMARK  Name = 11622909
REMARK  6 active torsions:
REMARK  status: ('A' for Active; 'I' for Inactive)
REMARK    1  A    between atoms: C_1  and  C_4
REMARK    2  A    between atoms: C_1  and  C_12
REMARK    3  A    between atoms: C_2  and  C_17
REMARK    4  A    between atoms: N_11  and  C_13
REMARK    5  A    between atoms: N_11  and  C_15
REMARK    6  A    between atoms: C_17  and  N_18
REMARK                            x       y       z     vdW  Elec       q    Type
REMARK                         _______ _______ _______ _____ _____    ______ ____
ROOT
ATOM      1  C   UNL     1      34.830 -18.544 -21.881  0.00  0.00    +0.086 C 
ATOM      2  C   UNL     1      35.320 -18.568 -23.293  0.00  0.00    -0.009 C 
ATOM      3  C   UNL     1      34.090 -19.337 -22.909  0.00  0.00    +0.011 C 
ENDROOT
BRANCH   1   4
ATOM      4  C   UNL     1      34.192 -17.323 -21.330  0.00  0.00    -0.015 C 
ATOM      5  C   UNL     1      34.974 -16.220 -20.974  0.00  0.00    -0.004 C 
ATOM      6  C   UNL     1      32.804 -17.267 -21.164  0.00  0.00    -0.004 C 
ATOM      7  C   UNL     1      34.374 -15.071 -20.459  0.00  0.00    -0.000 C 
ATOM      8  C   UNL     1      32.204 -16.119 -20.649  0.00  0.00    -0.000 C 
ATOM      9  C   UNL     1      32.989 -15.020 -20.296  0.00  0.00    -0.000 C 
ENDBRANCH   1   4
BRANCH   1  12
ATOM     10  O   UNL     1      36.766 -18.924 -20.629  0.00  0.00    -0.275 OA
ATOM     11  N   UNL     1      35.036 -20.455 -20.328  0.00  0.00    -0.279 N 
ATOM     12  C   UNL     1      35.633 -19.323 -20.889  0.00  0.00    +0.228 C 
BRANCH  11  13
ATOM     13  C   UNL     1      35.813 -21.611 -19.897  0.00  0.00    +0.093 C 
ATOM     14  C   UNL     1      36.545 -21.329 -18.626  0.00  0.00    +0.023 C 
ENDBRANCH  11  13
BRANCH  11  15
ATOM     15  C   UNL     1      33.593 -20.559 -20.132  0.00  0.00    +0.093 C 
ATOM     16  C   UNL     1      33.246 -21.706 -19.240  0.00  0.00    +0.023 C 
ENDBRANCH  11  15
ENDBRANCH   1  12
BRANCH   2  17
ATOM     17  C   UNL     1      35.175 -17.377 -24.169  0.00  0.00    -0.085 C 
BRANCH  17  18
ATOM     18  N   UNL     1      34.577 -17.725 -25.456  0.00  0.00    +0.380 N 
ATOM     19  H   UNL     1      34.257 -18.693 -25.430  0.00  0.00    -0.089 HD
ATOM     20  H   UNL     1      35.272 -17.616 -26.194  0.00  0.00    -0.089 HD
ATOM     21  H   UNL     1      33.785 -17.109 -25.640  0.00  0.00    -0.089 HD
ENDBRANCH  17  18
ENDBRANCH   2  17
TORSDOF 6
ENDMDL
MODEL 4
REMARK VINA RESULT:      -7.1      7.323      9.944
REMARK  Name = 11622909
REMARK  6 active torsions:
REMARK  status: ('A' for Active; 'I' for Inactive)
REMARK    1  A    between atoms: C_1  and  C_4
REMARK    2  A    between atoms: C_1  and  C_12
REMARK    3  A    between atoms: C_2  and  C_17
REMARK    4  A    between atoms: N_11  and  C_13
REMARK    5  A    between atoms: N_11  and  C_15
REMARK    6  A    between atoms: C_17  and  N_18
REMARK                            x       y       z     vdW  Elec       q    Type
REMARK                         _______ _______ _______ _____ _____    ______ ____
ROOT
ATOM      1  C   UNL     1      32.490  -8.468 -22.933  0.00  0.00    +0.086 C 
ATOM      2  C   UNL     1      31.965  -7.093 -23.195  0.00  0.00    -0.009 C 
ATOM      3  C   UNL     1      31.564  -8.234 -24.083  0.00  0.00    +0.011 C 
ENDROOT
BRANCH   1   4
ATOM      4  C   UNL     1      31.998  -9.249 -21.772  0.00  0.00    -0.015 C 
ATOM      5  C   UNL     1      31.138 -10.334 -21.966  0.00  0.00    -0.004 C 
ATOM      6  C   UNL     1      32.394  -8.907 -20.475  0.00  0.00    -0.004 C 
ATOM      7  C   UNL     1      30.679 -11.070 -20.875  0.00  0.00    -0.000 C 
ATOM      8  C   UNL     1      31.934  -9.643 -19.383  0.00  0.00    -0.000 C 
ATOM      9  C   UNL     1      31.076 -10.725 -19.582  0.00  0.00    -0.000 C 
ENDBRANCH   1   4
BRANCH   1  12
ATOM     10  O   UNL     1      34.769  -8.005 -22.710  0.00  0.00    -0.275 OA
ATOM     11  N   UNL     1      34.211  -9.701 -24.208  0.00  0.00    -0.279 N 
ATOM     12  C   UNL     1      33.927  -8.702 -23.272  0.00  0.00    +0.228 C 
BRANCH  11  13
ATOM     13  C   UNL     1      35.373  -9.634 -25.086  0.00  0.00    +0.093 C 
ATOM     14  C   UNL     1      35.277 -10.638 -26.188  0.00  0.00    +0.023 C 
ENDBRANCH  11  13
BRANCH  11  15
ATOM     15  C   UNL     1      33.365 -10.880 -24.370  0.00  0.00    +0.093 C 
ATOM     16  C   UNL     1      33.826 -12.003 -23.500  0.00  0.00    +0.023 C 
ENDBRANCH  11  15
ENDBRANCH   1  12
BRANCH   2  17
ATOM     17  C   UNL     1      30.942  -6.486 -22.303  0.00  0.00    -0.085 C 
BRANCH  17  18
ATOM     18  N   UNL     1      31.526  -5.478 -21.422  0.00  0.00    +0.380 N 
ATOM     19  H   UNL     1      31.207  -4.552 -21.707  0.00  0.00    -0.089 HD
ATOM     20  H   UNL     1      32.543  -5.521 -21.485  0.00  0.00    -0.089 HD
ATOM     21  H   UNL     1      31.236  -5.658 -20.461  0.00  0.00    -0.089 HD
ENDBRANCH  17  18
ENDBRANCH   2  17
TORSDOF 6
ENDMDL
MODEL 5
REMARK VINA RESULT:      -7.0      7.703     11.645
REMARK  Name = 11622909
REMARK  6 active torsions:
REMARK  status: ('A' for Active; 'I' for Inactive)
REMARK    1  A    between atoms: C_1  and  C_4
REMARK    2  A    between atoms: C_1  and  C_12
REMARK    3  A    between atoms: C_2  and  C_17
REMARK    4  A    between atoms: N_11  and  C_13
REMARK    5  A    between atoms: N_11  and  C_15
REMARK    6  A    between atoms: C_17  and  N_18
REMARK                            x       y       z     vdW  Elec       q    Type
REMARK                         _______ _______ _______ _____ _____    ______ ____
ROOT
ATOM      1  C   UNL     1      32.486  -7.723 -22.758  0.00  0.00    +0.086 C 
ATOM      2  C   UNL     1      32.033  -7.073 -21.490  0.00  0.00    -0.009 C 
ATOM      3  C   UNL     1      33.373  -7.747 -21.556  0.00  0.00    +0.011 C 
ENDROOT
BRANCH   1   4
ATOM      4  C   UNL     1      32.887  -6.896 -23.922  0.00  0.00    -0.015 C 
ATOM      5  C   UNL     1      34.211  -6.909 -24.372  0.00  0.00    -0.004 C 
ATOM      6  C   UNL     1      31.943  -6.100 -24.579  0.00  0.00    -0.004 C 
ATOM      7  C   UNL     1      34.588  -6.133 -25.468  0.00  0.00    -0.000 C 
ATOM      8  C   UNL     1      32.320  -5.324 -25.675  0.00  0.00    -0.000 C 
ATOM      9  C   UNL     1      33.642  -5.340 -26.120  0.00  0.00    -0.000 C 
ENDBRANCH   1   4
BRANCH   1  12
ATOM     10  O   UNL     1      30.597  -8.997 -23.279  0.00  0.00    -0.275 OA
ATOM     11  N   UNL     1      32.625 -10.143 -23.241  0.00  0.00    -0.279 N 
ATOM     12  C   UNL     1      31.815  -9.010 -23.117  0.00  0.00    +0.228 C 
BRANCH  11  13
ATOM     13  C   UNL     1      32.135 -11.484 -22.950  0.00  0.00    +0.093 C 
ATOM     14  C   UNL     1      31.681 -11.601 -21.531  0.00  0.00    +0.023 C 
ENDBRANCH  11  13
BRANCH  11  15
ATOM     15  C   UNL     1      34.018 -10.061 -23.672  0.00  0.00    +0.093 C 
ATOM     16  C   UNL     1      34.267 -10.917 -24.870  0.00  0.00    +0.023 C 
ENDBRANCH  11  15
ENDBRANCH   1  12
BRANCH   2  17
ATOM     17  C   UNL     1      31.981  -5.593 -21.370  0.00  0.00    -0.085 C 
BRANCH  17  18
ATOM     18  N   UNL     1      30.605  -5.104 -21.338  0.00  0.00    +0.380 N 
ATOM     19  H   UNL     1      30.559  -4.190 -21.790  0.00  0.00    -0.089 HD
ATOM     20  H   UNL     1      30.298  -5.020 -20.369  0.00  0.00    -0.089 HD
ATOM     21  H   UNL     1      30.000  -5.759 -21.833  0.00  0.00    -0.089 HD
ENDBRANCH  17  18
ENDBRANCH   2  17
TORSDOF 6
ENDMDL
MODEL 6
REMARK VINA RESULT:      -6.7      6.700      9.787
REMARK  Name = 11622909
REMARK  6 active torsions:
REMARK  status: ('A' for Active; 'I' for Inactive)
REMARK    1  A    between atoms: C_1  and  C_4
REMARK    2  A    between atoms: C_1  and  C_12
REMARK    3  A    between atoms: C_2  and  C_17
REMARK    4  A    between atoms: N_11  and  C_13
REMARK    5  A    between atoms: N_11  and  C_15
REMARK    6  A    between atoms: C_17  and  N_18
REMARK                            x       y       z     vdW  Elec       q    Type
REMARK                         _______ _______ _______ _____ _____    ______ ____
ROOT
ATOM      1  C   UNL     1      34.735 -23.662 -15.424  0.00  0.00    +0.086 C 
ATOM      2  C   UNL     1      33.295 -23.904 -15.102  0.00  0.00    -0.009 C 
ATOM      3  C   UNL     1      34.083 -22.897 -14.317  0.00  0.00    +0.011 C 
ENDROOT
BRANCH   1   4
ATOM      4  C   UNL     1      35.115 -22.938 -16.661  0.00  0.00    -0.015 C 
ATOM      5  C   UNL     1      36.360 -22.307 -16.753  0.00  0.00    -0.004 C 
ATOM      6  C   UNL     1      34.232 -22.883 -17.744  0.00  0.00    -0.004 C 
ATOM      7  C   UNL     1      36.719 -21.628 -17.917  0.00  0.00    -0.000 C 
ATOM      8  C   UNL     1      34.591 -22.204 -18.909  0.00  0.00    -0.000 C 
ATOM      9  C   UNL     1      35.834 -21.577 -18.995  0.00  0.00    -0.000 C 
ENDBRANCH   1   4
BRANCH   1  12
ATOM     10  O   UNL     1      35.767 -25.736 -15.727  0.00  0.00    -0.275 OA
ATOM     11  N   UNL     1      36.437 -24.526 -13.853  0.00  0.00    -0.279 N 
ATOM     12  C   UNL     1      35.692 -24.736 -15.017  0.00  0.00    +0.228 C 
BRANCH  11  13
ATOM     13  C   UNL     1      36.882 -25.625 -13.006  0.00  0.00    +0.093 C 
ATOM     14  C   UNL     1      38.313 -25.965 -13.265  0.00  0.00    +0.023 C 
ENDBRANCH  11  13
BRANCH  11  15
ATOM     15  C   UNL     1      36.821 -23.190 -13.405  0.00  0.00    +0.093 C 
ATOM     16  C   UNL     1      36.834 -23.100 -11.914  0.00  0.00    +0.023 C 
ENDBRANCH  11  15
ENDBRANCH   1  12
BRANCH   2  17
ATOM     17  C   UNL     1      32.222 -23.423 -16.010  0.00  0.00    -0.085 C 
BRANCH  17  18
ATOM     18  N   UNL     1      30.957 -24.108 -15.759  0.00  0.00    +0.380 N 
ATOM     19  H   UNL     1      30.182 -23.472 -15.951  0.00  0.00    -0.089 HD
ATOM     20  H   UNL     1      30.919 -24.404 -14.783  0.00  0.00    -0.089 HD
ATOM     21  H   UNL     1      30.886 -24.924 -16.366  0.00  0.00    -0.089 HD
ENDBRANCH  17  18
ENDBRANCH   2  17
TORSDOF 6
ENDMDL
MODEL 7
REMARK VINA RESULT:      -6.5      7.553     10.018
REMARK  Name = 11622909
REMARK  6 active torsions:
REMARK  status: ('A' for Active; 'I' for Inactive)
REMARK    1  A    between atoms: C_1  and  C_4
REMARK    2  A    between atoms: C_1  and  C_12
REMARK    3  A    between atoms: C_2  and  C_17
REMARK    4  A    between atoms: N_11  and  C_13
REMARK    5  A    between atoms: N_11  and  C_15
REMARK    6  A    between atoms: C_17  and  N_18
REMARK                            x       y       z     vdW  Elec       q    Type
REMARK                         _______ _______ _______ _____ _____    ______ ____
ROOT
ATOM      1  C   UNL     1      32.298  -9.153 -22.596  0.00  0.00    +0.086 C 
ATOM      2  C   UNL     1      31.600 -10.069 -21.643  0.00  0.00    -0.009 C 
ATOM      3  C   UNL     1      30.845  -9.449 -22.781  0.00  0.00    +0.011 C 
ENDROOT
BRANCH   1   4
ATOM      4  C   UNL     1      33.266  -9.693 -23.582  0.00  0.00    -0.015 C 
ATOM      5  C   UNL     1      32.998 -10.894 -24.246  0.00  0.00    -0.004 C 
ATOM      6  C   UNL     1      34.451  -9.003 -23.856  0.00  0.00    -0.004 C 
ATOM      7  C   UNL     1      33.907 -11.400 -25.175  0.00  0.00    -0.000 C 
ATOM      8  C   UNL     1      35.360  -9.509 -24.785  0.00  0.00    -0.000 C 
ATOM      9  C   UNL     1      35.088 -10.708 -25.445  0.00  0.00    -0.000 C 
ENDBRANCH   1   4
BRANCH   1  12
ATOM     10  O   UNL     1      33.360  -7.724 -21.082  0.00  0.00    -0.275 OA
ATOM     11  N   UNL     1      32.113  -6.694 -22.758  0.00  0.00    -0.279 N 
ATOM     12  C   UNL     1      32.640  -7.794 -22.075  0.00  0.00    +0.228 C 
BRANCH  11  13
ATOM     13  C   UNL     1      31.803  -5.438 -22.087  0.00  0.00    +0.093 C 
ATOM     14  C   UNL     1      30.340  -5.317 -21.809  0.00  0.00    +0.023 C 
ENDBRANCH  11  13
BRANCH  11  15
ATOM     15  C   UNL     1      31.837  -6.726 -24.192  0.00  0.00    +0.093 C 
ATOM     16  C   UNL     1      32.740  -5.802 -24.940  0.00  0.00    +0.023 C 
ENDBRANCH  11  15
ENDBRANCH   1  12
BRANCH   2  17
ATOM     17  C   UNL     1      31.858 -11.533 -21.667  0.00  0.00    -0.085 C 
BRANCH  17  18
ATOM     18  N   UNL     1      31.805 -12.111 -20.327  0.00  0.00    +0.380 N 
ATOM     19  H   UNL     1      32.447 -12.902 -20.273  0.00  0.00    -0.089 HD
ATOM     20  H   UNL     1      30.856 -12.430 -20.133  0.00  0.00    -0.089 HD
ATOM     21  H   UNL     1      32.075 -11.406 -19.642  0.00  0.00    -0.089 HD
ENDBRANCH  17  18
ENDBRANCH   2  17
TORSDOF 6
ENDMDL
MODEL 8
REMARK VINA RESULT:      -6.4      6.786      9.954
REMARK  Name = 11622909
REMARK  6 active torsions:
REMARK  status: ('A' for Active; 'I' for Inactive)
REMARK    1  A    between atoms: C_1  and  C_4
REMARK    2  A    between atoms: C_1  and  C_12
REMARK    3  A    between atoms: C_2  and  C_17
REMARK    4  A    between atoms: N_11  and  C_13
REMARK    5  A    between atoms: N_11  and  C_15
REMARK    6  A    between atoms: C_17  and  N_18
REMARK                            x       y       z     vdW  Elec       q    Type
REMARK                         _______ _______ _______ _____ _____    ______ ____
ROOT
ATOM      1  C   UNL     1      34.995 -23.910 -15.275  0.00  0.00    +0.086 C 
ATOM      2  C   UNL     1      33.801 -23.867 -14.376  0.00  0.00    -0.009 C 
ATOM      3  C   UNL     1      35.038 -23.096 -14.022  0.00  0.00    +0.011 C 
ENDROOT
BRANCH   1   4
ATOM      4  C   UNL     1      34.977 -23.207 -16.580  0.00  0.00    -0.015 C 
ATOM      5  C   UNL     1      33.871 -23.324 -17.428  0.00  0.00    -0.004 C 
ATOM      6  C   UNL     1      36.066 -22.420 -16.971  0.00  0.00    -0.004 C 
ATOM      7  C   UNL     1      33.853 -22.660 -18.654  0.00  0.00    -0.000 C 
ATOM      8  C   UNL     1      36.048 -21.757 -18.198  0.00  0.00    -0.000 C 
ATOM      9  C   UNL     1      34.941 -21.876 -19.040  0.00  0.00    -0.000 C 
ENDBRANCH   1   4
BRANCH   1  12
ATOM     10  O   UNL     1      35.307 -26.152 -15.858  0.00  0.00    -0.275 OA
ATOM     11  N   UNL     1      37.003 -25.180 -14.590  0.00  0.00    -0.279 N 
ATOM     12  C   UNL     1      35.781 -25.182 -15.269  0.00  0.00    +0.228 C 
BRANCH  11  13
ATOM     13  C   UNL     1      37.544 -26.377 -13.958  0.00  0.00    +0.093 C 
ATOM     14  C   UNL     1      37.509 -26.267 -12.469  0.00  0.00    +0.023 C 
ENDBRANCH  11  13
BRANCH  11  15
ATOM     15  C   UNL     1      37.823 -23.977 -14.468  0.00  0.00    +0.093 C 
ATOM     16  C   UNL     1      39.007 -24.032 -15.376  0.00  0.00    +0.023 C 
ENDBRANCH  11  15
ENDBRANCH   1  12
BRANCH   2  17
ATOM     17  C   UNL     1      32.579 -23.119 -14.771  0.00  0.00    -0.085 C 
BRANCH  17  18
ATOM     18  N   UNL     1      31.407 -23.989 -14.818  0.00  0.00    +0.380 N 
ATOM     19  H   UNL     1      30.729 -23.610 -15.478  0.00  0.00    -0.089 HD
ATOM     20  H   UNL     1      30.986 -24.041 -13.890  0.00  0.00    -0.089 HD
ATOM     21  H   UNL     1      31.688 -24.923 -15.117  0.00  0.00    -0.089 HD
ENDBRANCH  17  18
ENDBRANCH   2  17
TORSDOF 6
ENDMDL
MODEL 9
REMARK VINA RESULT:      -6.3      8.208     10.113
REMARK  Name = 11622909
REMARK  6 active torsions:
REMARK  status: ('A' for Active; 'I' for Inactive)
REMARK    1  A    between atoms: C_1  and  C_4
REMARK    2  A    between atoms: C_1  and  C_12
REMARK    3  A    between atoms: C_2  and  C_17
REMARK    4  A    between atoms: N_11  and  C_13
REMARK    5  A    between atoms: N_11  and  C_15
REMARK    6  A    between atoms: C_17  and  N_18
REMARK                            x       y       z     vdW  Elec       q    Type
REMARK                         _______ _______ _______ _____ _____    ______ ____
ROOT
ATOM      1  C   UNL     1      31.913  -8.809 -22.904  0.00  0.00    +0.086 C 
ATOM      2  C   UNL     1      31.783  -7.322 -22.982  0.00  0.00    -0.009 C 
ATOM      3  C   UNL     1      30.694  -8.203 -23.520  0.00  0.00    +0.011 C 
ENDROOT
BRANCH   1   4
ATOM      4  C   UNL     1      31.781  -9.506 -21.602  0.00  0.00    -0.015 C 
ATOM      5  C   UNL     1      31.102 -10.726 -21.522  0.00  0.00    -0.004 C 
ATOM      6  C   UNL     1      32.336  -8.949 -20.445  0.00  0.00    -0.004 C 
ATOM      7  C   UNL     1      30.980 -11.383 -20.298  0.00  0.00    -0.000 C 
ATOM      8  C   UNL     1      32.214  -9.606 -19.221  0.00  0.00    -0.000 C 
ATOM      9  C   UNL     1      31.536 -10.822 -19.147  0.00  0.00    -0.000 C 
ENDBRANCH   1   4
BRANCH   1  12
ATOM     10  O   UNL     1      32.495 -10.357 -24.555  0.00  0.00    -0.275 OA
ATOM     11  N   UNL     1      34.195  -8.929 -23.848  0.00  0.00    -0.279 N 
ATOM     12  C   UNL     1      32.892  -9.436 -23.844  0.00  0.00    +0.228 C 
BRANCH  11  13
ATOM     13  C   UNL     1      35.350  -9.758 -24.167  0.00  0.00    +0.093 C 
ATOM     14  C   UNL     1      35.368 -10.131 -25.614  0.00  0.00    +0.023 C 
ENDBRANCH  11  13
BRANCH  11  15
ATOM     15  C   UNL     1      34.488  -7.534 -23.532  0.00  0.00    +0.093 C 
ATOM     16  C   UNL     1      34.582  -6.705 -24.771  0.00  0.00    +0.023 C 
ENDBRANCH  11  15
ENDBRANCH   1  12
BRANCH   2  17
ATOM     17  C   UNL     1      31.515  -6.517 -21.762  0.00  0.00    -0.085 C 
BRANCH  17  18
ATOM     18  N   UNL     1      31.891  -5.118 -21.947  0.00  0.00    +0.380 N 
ATOM     19  H   UNL     1      32.438  -5.024 -22.803  0.00  0.00    -0.089 HD
ATOM     20  H   UNL     1      32.450  -4.808 -21.152  0.00  0.00    -0.089 HD
ATOM     21  H   UNL     1      31.049  -4.546 -22.016  0.00  0.00    -0.089 HD
ENDBRANCH  17  18
ENDBRANCH   2  17
TORSDOF 6
ENDMDL
