MODEL 1
REMARK VINA RESULT:      -7.9      0.000      0.000
REMARK  Name = 2444
REMARK  6 active torsions:
REMARK  status: ('A' for Active; 'I' for Inactive)
REMARK    1  A    between atoms: C_1  and  C_3
REMARK    2  A    between atoms: C_1  and  C_9
REMARK    3  A    between atoms: C_1  and  O_15
REMARK    4  A    between atoms: O_15  and  C_16
REMARK    5  A    between atoms: C_16  and  C_17
REMARK    6  A    between atoms: C_17  and  N_18
REMARK                            x       y       z     vdW  Elec       q    Type
REMARK                         _______ _______ _______ _____ _____    ______ ____
ROOT
ATOM      1  C   UNL     1      33.911 -18.172 -22.143  0.00  0.00    +0.160 C 
ENDROOT
BRANCH   1   3
ATOM      2 BR   UNL     1      34.307 -22.878 -18.171  0.00  0.00    -0.049 Br
ATOM      3  C   UNL     1      34.009 -19.329 -21.168  0.00  0.00    +0.009 C 
ATOM      4  C   UNL     1      32.849 -19.850 -20.624  0.00  0.00    -0.001 C 
ATOM      5  C   UNL     1      35.255 -19.835 -20.846  0.00  0.00    -0.001 C 
ATOM      6  C   UNL     1      32.939 -20.913 -19.726  0.00  0.00    +0.006 C 
ATOM      7  C   UNL     1      35.345 -20.899 -19.949  0.00  0.00    +0.006 C 
ATOM      8  C   UNL     1      34.186 -21.438 -19.388  0.00  0.00    +0.035 C 
ENDBRANCH   1   3
BRANCH   1   9
ATOM      9  C   UNL     1      33.742 -16.833 -21.455  0.00  0.00    +0.009 C 
ATOM     10  C   UNL     1      34.867 -16.113 -21.095  0.00  0.00    -0.002 C 
ATOM     11  C   UNL     1      32.466 -16.361 -21.204  0.00  0.00    -0.002 C 
ATOM     12  C   UNL     1      34.711 -14.880 -20.463  0.00  0.00    -0.000 C 
ATOM     13  C   UNL     1      32.310 -15.127 -20.570  0.00  0.00    -0.000 C 
ATOM     14  C   UNL     1      33.433 -14.387 -20.200  0.00  0.00    -0.000 C 
ENDBRANCH   1   9
BRANCH   1  15
ATOM     15  O   UNL     1      35.031 -18.138 -23.018  0.00  0.00    -0.350 OA
BRANCH  15  16
ATOM     16  C   UNL     1      34.629 -17.994 -24.373  0.00  0.00    +0.120 C 
BRANCH  16  17
ATOM     17  C   UNL     1      34.907 -16.566 -24.816  0.00  0.00    -0.045 C 
BRANCH  17  18
ATOM     18  N   UNL     1      33.676 -15.777 -24.819  0.00  0.00    +0.386 N 
ATOM     19  C   UNL     1      33.885 -14.501 -24.134  0.00  0.00    -0.101 C 
ATOM     20  C   UNL     1      33.215 -15.554 -26.188  0.00  0.00    -0.101 C 
ATOM     21  H   UNL     1      32.957 -16.298 -24.317  0.00  0.00    -0.080 HD
ENDBRANCH  17  18
ENDBRANCH  16  17
ENDBRANCH  15  16
ENDBRANCH   1  15
TORSDOF 6
ENDMDL
MODEL 2
REMARK VINA RESULT:      -7.7      3.422      5.802
REMARK  Name = 2444
REMARK  6 active torsions:
REMARK  status: ('A' for Active; 'I' for Inactive)
REMARK    1  A    between atoms: C_1  and  C_3
REMARK    2  A    between atoms: C_1  and  C_9
REMARK    3  A    between atoms: C_1  and  O_15
REMARK    4  A    between atoms: O_15  and  C_16
REMARK    5  A    between atoms: C_16  and  C_17
REMARK    6  A    between atoms: C_17  and  N_18
REMARK                            x       y       z     vdW  Elec       q    Type
REMARK                         _______ _______ _______ _____ _____    ______ ____
ROOT
ATOM      1  C   UNL     1      33.294 -13.627 -22.767  0.00  0.00    +0.160 C 
ENDROOT
BRANCH   1   3
ATOM      2 BR   UNL     1      35.440 -19.209 -21.242  0.00  0.00    -0.049 Br
ATOM      3  C   UNL     1      33.822 -14.998 -22.391  0.00  0.00    +0.009 C 
ATOM      4  C   UNL     1      34.855 -15.547 -23.129  0.00  0.00    -0.001 C 
ATOM      5  C   UNL     1      33.257 -15.666 -21.320  0.00  0.00    -0.001 C 
ATOM      6  C   UNL     1      35.339 -16.809 -22.785  0.00  0.00    +0.006 C 
ATOM      7  C   UNL     1      33.743 -16.928 -20.975  0.00  0.00    +0.006 C 
ATOM      8  C   UNL     1      34.784 -17.499 -21.708  0.00  0.00    +0.035 C 
ENDBRANCH   1   3
BRANCH   1   9
ATOM      9  C   UNL     1      33.333 -13.368 -24.259  0.00  0.00    +0.009 C 
ATOM     10  C   UNL     1      32.845 -14.332 -25.123  0.00  0.00    -0.002 C 
ATOM     11  C   UNL     1      33.855 -12.174 -24.722  0.00  0.00    -0.002 C 
ATOM     12  C   UNL     1      32.880 -14.093 -26.496  0.00  0.00    -0.000 C 
ATOM     13  C   UNL     1      33.891 -11.936 -26.097  0.00  0.00    -0.000 C 
ATOM     14  C   UNL     1      33.403 -12.896 -26.984  0.00  0.00    -0.000 C 
ENDBRANCH   1   9
BRANCH   1  15
ATOM     15  O   UNL     1      31.979 -13.424 -22.266  0.00  0.00    -0.350 OA
BRANCH  15  16
ATOM     16  C   UNL     1      31.929 -12.326 -21.365  0.00  0.00    +0.120 C 
BRANCH  16  17
ATOM     17  C   UNL     1      31.245 -11.158 -22.058  0.00  0.00    -0.045 C 
BRANCH  17  18
ATOM     18  N   UNL     1      32.132  -9.996 -22.108  0.00  0.00    +0.386 N 
ATOM     19  C   UNL     1      31.846  -9.184 -23.291  0.00  0.00    -0.101 C 
ATOM     20  C   UNL     1      31.994  -9.196 -20.892  0.00  0.00    -0.101 C 
ATOM     21  H   UNL     1      33.095 -10.327 -22.170  0.00  0.00    -0.080 HD
ENDBRANCH  17  18
ENDBRANCH  16  17
ENDBRANCH  15  16
ENDBRANCH   1  15
TORSDOF 6
ENDMDL
MODEL 3
REMARK VINA RESULT:      -7.7      3.423      5.678
REMARK  Name = 2444
REMARK  6 active torsions:
REMARK  status: ('A' for Active; 'I' for Inactive)
REMARK    1  A    between atoms: C_1  and  C_3
REMARK    2  A    between atoms: C_1  and  C_9
REMARK    3  A    between atoms: C_1  and  O_15
REMARK    4  A    between atoms: O_15  and  C_16
REMARK    5  A    between atoms: C_16  and  C_17
REMARK    6  A    between atoms: C_17  and  N_18
REMARK                            x       y       z     vdW  Elec       q    Type
REMARK                         _______ _______ _______ _____ _____    ______ ____
ROOT
ATOM      1  C   UNL     1      33.292 -13.626 -22.769  0.00  0.00    +0.160 C 
ENDROOT
BRANCH   1   3
ATOM      2 BR   UNL     1      35.450 -19.201 -21.241  0.00  0.00    -0.049 Br
ATOM      3  C   UNL     1      33.822 -14.996 -22.395  0.00  0.00    +0.009 C 
ATOM      4  C   UNL     1      33.258 -15.665 -21.324  0.00  0.00    -0.001 C 
ATOM      5  C   UNL     1      34.855 -15.543 -23.133  0.00  0.00    -0.001 C 
ATOM      6  C   UNL     1      33.746 -16.925 -20.978  0.00  0.00    +0.006 C 
ATOM      7  C   UNL     1      35.342 -16.804 -22.788  0.00  0.00    +0.006 C 
ATOM      8  C   UNL     1      34.788 -17.495 -21.709  0.00  0.00    +0.035 C 
ENDBRANCH   1   3
BRANCH   1   9
ATOM      9  C   UNL     1      33.334 -13.364 -24.260  0.00  0.00    +0.009 C 
ATOM     10  C   UNL     1      33.857 -12.168 -24.720  0.00  0.00    -0.002 C 
ATOM     11  C   UNL     1      32.850 -14.326 -25.128  0.00  0.00    -0.002 C 
ATOM     12  C   UNL     1      33.897 -11.927 -26.093  0.00  0.00    -0.000 C 
ATOM     13  C   UNL     1      32.890 -14.084 -26.502  0.00  0.00    -0.000 C 
ATOM     14  C   UNL     1      33.413 -12.884 -26.984  0.00  0.00    -0.000 C 
ENDBRANCH   1   9
BRANCH   1  15
ATOM     15  O   UNL     1      31.975 -13.427 -22.272  0.00  0.00    -0.350 OA
BRANCH  15  16
ATOM     16  C   UNL     1      31.919 -12.332 -21.368  0.00  0.00    +0.120 C 
BRANCH  16  17
ATOM     17  C   UNL     1      31.237 -11.162 -22.060  0.00  0.00    -0.045 C 
BRANCH  17  18
ATOM     18  N   UNL     1      32.123 -10.000 -22.104  0.00  0.00    +0.386 N 
ATOM     19  C   UNL     1      31.842  -9.187 -23.287  0.00  0.00    -0.101 C 
ATOM     20  C   UNL     1      31.979  -9.201 -20.888  0.00  0.00    -0.101 C 
ATOM     21  H   UNL     1      33.086 -10.331 -22.161  0.00  0.00    -0.080 HD
ENDBRANCH  17  18
ENDBRANCH  16  17
ENDBRANCH  15  16
ENDBRANCH   1  15
TORSDOF 6
ENDMDL
MODEL 4
REMARK VINA RESULT:      -7.7      1.544      3.605
REMARK  Name = 2444
REMARK  6 active torsions:
REMARK  status: ('A' for Active; 'I' for Inactive)
REMARK    1  A    between atoms: C_1  and  C_3
REMARK    2  A    between atoms: C_1  and  C_9
REMARK    3  A    between atoms: C_1  and  O_15
REMARK    4  A    between atoms: O_15  and  C_16
REMARK    5  A    between atoms: C_16  and  C_17
REMARK    6  A    between atoms: C_17  and  N_18
REMARK                            x       y       z     vdW  Elec       q    Type
REMARK                         _______ _______ _______ _____ _____    ______ ____
ROOT
ATOM      1  C   UNL     1      34.770 -17.711 -21.504  0.00  0.00    +0.160 C 
ENDROOT
BRANCH   1   3
ATOM      2 BR   UNL     1      33.858 -23.150 -18.735  0.00  0.00    -0.049 Br
ATOM      3  C   UNL     1      34.546 -19.047 -20.822  0.00  0.00    +0.009 C 
ATOM      4  C   UNL     1      35.640 -19.811 -20.463  0.00  0.00    -0.001 C 
ATOM      5  C   UNL     1      33.251 -19.468 -20.577  0.00  0.00    -0.001 C 
ATOM      6  C   UNL     1      35.435 -21.041 -19.837  0.00  0.00    +0.006 C 
ATOM      7  C   UNL     1      33.045 -20.698 -19.951  0.00  0.00    +0.006 C 
ATOM      8  C   UNL     1      34.137 -21.485 -19.581  0.00  0.00    +0.035 C 
ENDBRANCH   1   3
BRANCH   1   9
ATOM      9  C   UNL     1      34.692 -17.798 -23.014  0.00  0.00    +0.009 C 
ATOM     10  C   UNL     1      34.613 -19.041 -23.614  0.00  0.00    -0.002 C 
ATOM     11  C   UNL     1      34.702 -16.632 -23.757  0.00  0.00    -0.002 C 
ATOM     12  C   UNL     1      34.540 -19.121 -25.004  0.00  0.00    -0.000 C 
ATOM     13  C   UNL     1      34.630 -16.712 -25.149  0.00  0.00    -0.000 C 
ATOM     14  C   UNL     1      34.549 -17.957 -25.772  0.00  0.00    -0.000 C 
ENDBRANCH   1   9
BRANCH   1  15
ATOM     15  O   UNL     1      33.867 -16.726 -21.019  0.00  0.00    -0.350 OA
BRANCH  15  16
ATOM     16  C   UNL     1      34.556 -15.622 -20.449  0.00  0.00    +0.120 C 
BRANCH  16  17
ATOM     17  C   UNL     1      34.317 -14.396 -21.316  0.00  0.00    -0.045 C 
BRANCH  17  18
ATOM     18  N   UNL     1      32.890 -14.227 -21.587  0.00  0.00    +0.386 N 
ATOM     19  C   UNL     1      32.270 -13.389 -20.560  0.00  0.00    -0.101 C 
ATOM     20  C   UNL     1      32.687 -13.645 -22.913  0.00  0.00    -0.101 C 
ATOM     21  H   UNL     1      32.446 -15.145 -21.565  0.00  0.00    -0.080 HD
ENDBRANCH  17  18
ENDBRANCH  16  17
ENDBRANCH  15  16
ENDBRANCH   1  15
TORSDOF 6
ENDMDL
MODEL 5
REMARK VINA RESULT:      -7.7      7.246     10.447
REMARK  Name = 2444
REMARK  6 active torsions:
REMARK  status: ('A' for Active; 'I' for Inactive)
REMARK    1  A    between atoms: C_1  and  C_3
REMARK    2  A    between atoms: C_1  and  C_9
REMARK    3  A    between atoms: C_1  and  O_15
REMARK    4  A    between atoms: O_15  and  C_16
REMARK    5  A    between atoms: C_16  and  C_17
REMARK    6  A    between atoms: C_17  and  N_18
REMARK                            x       y       z     vdW  Elec       q    Type
REMARK                         _______ _______ _______ _____ _____    ______ ____
ROOT
ATOM      1  C   UNL     1      34.614 -23.852 -14.950  0.00  0.00    +0.160 C 
ENDROOT
BRANCH   1   3
ATOM      2 BR   UNL     1      35.884 -20.955 -20.249  0.00  0.00    -0.049 Br
ATOM      3  C   UNL     1      34.926 -23.139 -16.251  0.00  0.00    +0.009 C 
ATOM      4  C   UNL     1      33.989 -23.154 -17.268  0.00  0.00    -0.001 C 
ATOM      5  C   UNL     1      36.140 -22.491 -16.390  0.00  0.00    -0.001 C 
ATOM      6  C   UNL     1      34.276 -22.500 -18.466  0.00  0.00    +0.006 C 
ATOM      7  C   UNL     1      36.427 -21.836 -17.587  0.00  0.00    +0.006 C 
ATOM      8  C   UNL     1      35.495 -21.841 -18.626  0.00  0.00    +0.035 C 
ENDBRANCH   1   3
BRANCH   1   9
ATOM      9  C   UNL     1      33.135 -23.861 -14.622  0.00  0.00    +0.009 C 
ATOM     10  C   UNL     1      32.585 -24.980 -14.023  0.00  0.00    -0.002 C 
ATOM     11  C   UNL     1      32.370 -22.750 -14.928  0.00  0.00    -0.002 C 
ATOM     12  C   UNL     1      31.223 -24.988 -13.720  0.00  0.00    -0.000 C 
ATOM     13  C   UNL     1      31.008 -22.758 -14.626  0.00  0.00    -0.000 C 
ATOM     14  C   UNL     1      30.434 -23.878 -14.021  0.00  0.00    -0.000 C 
ENDBRANCH   1   9
BRANCH   1  15
ATOM     15  O   UNL     1      35.126 -25.178 -14.951  0.00  0.00    -0.350 OA
BRANCH  15  16
ATOM     16  C   UNL     1      36.281 -25.291 -14.131  0.00  0.00    +0.120 C 
BRANCH  16  17
ATOM     17  C   UNL     1      37.338 -26.085 -14.882  0.00  0.00    -0.045 C 
BRANCH  17  18
ATOM     18  N   UNL     1      38.528 -26.273 -14.053  0.00  0.00    +0.386 N 
ATOM     19  C   UNL     1      39.699 -25.678 -14.696  0.00  0.00    -0.101 C 
ATOM     20  C   UNL     1      38.323 -25.695 -12.726  0.00  0.00    -0.101 C 
ATOM     21  H   UNL     1      38.693 -27.275 -13.948  0.00  0.00    -0.080 HD
ENDBRANCH  17  18
ENDBRANCH  16  17
ENDBRANCH  15  16
ENDBRANCH   1  15
TORSDOF 6
ENDMDL
MODEL 6
REMARK VINA RESULT:      -7.6      6.867     10.179
REMARK  Name = 2444
REMARK  6 active torsions:
REMARK  status: ('A' for Active; 'I' for Inactive)
REMARK    1  A    between atoms: C_1  and  C_3
REMARK    2  A    between atoms: C_1  and  C_9
REMARK    3  A    between atoms: C_1  and  O_15
REMARK    4  A    between atoms: O_15  and  C_16
REMARK    5  A    between atoms: C_16  and  C_17
REMARK    6  A    between atoms: C_17  and  N_18
REMARK                            x       y       z     vdW  Elec       q    Type
REMARK                         _______ _______ _______ _____ _____    ______ ____
ROOT
ATOM      1  C   UNL     1      34.200 -24.051 -15.237  0.00  0.00    +0.160 C 
ENDROOT
BRANCH   1   3
ATOM      2 BR   UNL     1      36.276 -20.801 -20.054  0.00  0.00    -0.049 Br
ATOM      3  C   UNL     1      34.710 -23.253 -16.421  0.00  0.00    +0.009 C 
ATOM      4  C   UNL     1      35.969 -22.683 -16.356  0.00  0.00    -0.001 C 
ATOM      5  C   UNL     1      33.905 -23.116 -17.537  0.00  0.00    -0.001 C 
ATOM      6  C   UNL     1      36.438 -21.948 -17.444  0.00  0.00    +0.006 C 
ATOM      7  C   UNL     1      34.375 -22.381 -18.626  0.00  0.00    +0.006 C 
ATOM      8  C   UNL     1      35.641 -21.797 -18.580  0.00  0.00    +0.035 C 
ENDBRANCH   1   3
BRANCH   1   9
ATOM      9  C   UNL     1      35.302 -24.784 -14.499  0.00  0.00    +0.009 C 
ATOM     10  C   UNL     1      35.987 -25.797 -15.145  0.00  0.00    -0.002 C 
ATOM     11  C   UNL     1      35.599 -24.421 -13.198  0.00  0.00    -0.002 C 
ATOM     12  C   UNL     1      37.002 -26.471 -14.467  0.00  0.00    -0.000 C 
ATOM     13  C   UNL     1      36.615 -25.096 -12.519  0.00  0.00    -0.000 C 
ATOM     14  C   UNL     1      37.316 -26.121 -13.154  0.00  0.00    -0.000 C 
ENDBRANCH   1   9
BRANCH   1  15
ATOM     15  O   UNL     1      33.467 -23.230 -14.337  0.00  0.00    -0.350 OA
BRANCH  15  16
ATOM     16  C   UNL     1      32.150 -23.723 -14.137  0.00  0.00    +0.120 C 
BRANCH  16  17
ATOM     17  C   UNL     1      31.174 -22.829 -14.885  0.00  0.00    -0.045 C 
BRANCH  17  18
ATOM     18  N   UNL     1      30.500 -23.574 -15.947  0.00  0.00    +0.386 N 
ATOM     19  C   UNL     1      30.111 -24.902 -15.472  0.00  0.00    -0.101 C 
ATOM     20  C   UNL     1      29.331 -22.839 -16.426  0.00  0.00    -0.101 C 
ATOM     21  H   UNL     1      31.151 -23.689 -16.724  0.00  0.00    -0.080 HD
ENDBRANCH  17  18
ENDBRANCH  16  17
ENDBRANCH  15  16
ENDBRANCH   1  15
TORSDOF 6
ENDMDL
MODEL 7
REMARK VINA RESULT:      -7.6      6.909     10.271
REMARK  Name = 2444
REMARK  6 active torsions:
REMARK  status: ('A' for Active; 'I' for Inactive)
REMARK    1  A    between atoms: C_1  and  C_3
REMARK    2  A    between atoms: C_1  and  C_9
REMARK    3  A    between atoms: C_1  and  O_15
REMARK    4  A    between atoms: O_15  and  C_16
REMARK    5  A    between atoms: C_16  and  C_17
REMARK    6  A    between atoms: C_17  and  N_18
REMARK                            x       y       z     vdW  Elec       q    Type
REMARK                         _______ _______ _______ _____ _____    ______ ____
ROOT
ATOM      1  C   UNL     1      34.192 -24.010 -15.272  0.00  0.00    +0.160 C 
ENDROOT
BRANCH   1   3
ATOM      2 BR   UNL     1      36.358 -20.782 -20.065  0.00  0.00    -0.049 Br
ATOM      3  C   UNL     1      34.724 -23.216 -16.449  0.00  0.00    +0.009 C 
ATOM      4  C   UNL     1      33.934 -23.069 -17.574  0.00  0.00    -0.001 C 
ATOM      5  C   UNL     1      35.987 -22.658 -16.369  0.00  0.00    -0.001 C 
ATOM      6  C   UNL     1      34.423 -22.340 -18.658  0.00  0.00    +0.006 C 
ATOM      7  C   UNL     1      36.477 -21.928 -17.452  0.00  0.00    +0.006 C 
ATOM      8  C   UNL     1      35.694 -21.769 -18.597  0.00  0.00    +0.035 C 
ENDBRANCH   1   3
BRANCH   1   9
ATOM      9  C   UNL     1      35.279 -24.746 -14.516  0.00  0.00    +0.009 C 
ATOM     10  C   UNL     1      35.546 -24.391 -13.206  0.00  0.00    -0.002 C 
ATOM     11  C   UNL     1      35.978 -25.754 -15.153  0.00  0.00    -0.002 C 
ATOM     12  C   UNL     1      36.546 -25.069 -12.510  0.00  0.00    -0.000 C 
ATOM     13  C   UNL     1      36.980 -26.432 -14.457  0.00  0.00    -0.000 C 
ATOM     14  C   UNL     1      37.264 -26.089 -13.134  0.00  0.00    -0.000 C 
ENDBRANCH   1   9
BRANCH   1  15
ATOM     15  O   UNL     1      33.448 -23.184 -14.386  0.00  0.00    -0.350 OA
BRANCH  15  16
ATOM     16  C   UNL     1      32.158 -23.723 -14.130  0.00  0.00    +0.120 C 
BRANCH  16  17
ATOM     17  C   UNL     1      31.170 -23.110 -15.110  0.00  0.00    -0.045 C 
BRANCH  17  18
ATOM     18  N   UNL     1      30.268 -24.131 -15.640  0.00  0.00    +0.386 N 
ATOM     19  C   UNL     1      30.241 -25.299 -14.759  0.00  0.00    -0.101 C 
ATOM     20  C   UNL     1      28.922 -23.587 -15.809  0.00  0.00    -0.101 C 
ATOM     21  H   UNL     1      30.615 -24.426 -16.554  0.00  0.00    -0.080 HD
ENDBRANCH  17  18
ENDBRANCH  16  17
ENDBRANCH  15  16
ENDBRANCH   1  15
TORSDOF 6
ENDMDL
MODEL 8
REMARK VINA RESULT:      -7.5      7.309     10.277
REMARK  Name = 2444
REMARK  6 active torsions:
REMARK  status: ('A' for Active; 'I' for Inactive)
REMARK    1  A    between atoms: C_1  and  C_3
REMARK    2  A    between atoms: C_1  and  C_9
REMARK    3  A    between atoms: C_1  and  O_15
REMARK    4  A    between atoms: O_15  and  C_16
REMARK    5  A    between atoms: C_16  and  C_17
REMARK    6  A    between atoms: C_17  and  N_18
REMARK                            x       y       z     vdW  Elec       q    Type
REMARK                         _______ _______ _______ _____ _____    ______ ____
ROOT
ATOM      1  C   UNL     1      33.011  -9.388 -23.086  0.00  0.00    +0.160 C 
ENDROOT
BRANCH   1   3
ATOM      2 BR   UNL     1      31.334  -3.859 -25.256  0.00  0.00    -0.049 Br
ATOM      3  C   UNL     1      32.600  -8.029 -23.618  0.00  0.00    +0.009 C 
ATOM      4  C   UNL     1      31.258  -7.695 -23.646  0.00  0.00    -0.001 C 
ATOM      5  C   UNL     1      33.576  -7.156 -24.063  0.00  0.00    -0.001 C 
ATOM      6  C   UNL     1      30.879  -6.446 -24.137  0.00  0.00    +0.006 C 
ATOM      7  C   UNL     1      33.197  -5.906 -24.553  0.00  0.00    +0.006 C 
ATOM      8  C   UNL     1      31.848  -5.551 -24.590  0.00  0.00    +0.035 C 
ENDBRANCH   1   3
BRANCH   1   9
ATOM      9  C   UNL     1      32.280  -9.770 -21.816  0.00  0.00    +0.009 C 
ATOM     10  C   UNL     1      32.429  -8.981 -20.689  0.00  0.00    -0.002 C 
ATOM     11  C   UNL     1      31.481 -10.899 -21.812  0.00  0.00    -0.002 C 
ATOM     12  C   UNL     1      31.756  -9.333 -19.520  0.00  0.00    -0.000 C 
ATOM     13  C   UNL     1      30.807 -11.251 -20.641  0.00  0.00    -0.000 C 
ATOM     14  C   UNL     1      30.945 -10.468 -19.495  0.00  0.00    -0.000 C 
ENDBRANCH   1   9
BRANCH   1  15
ATOM     15  O   UNL     1      32.849 -10.399 -24.072  0.00  0.00    -0.350 OA
BRANCH  15  16
ATOM     16  C   UNL     1      34.079 -11.051 -24.356  0.00  0.00    +0.120 C 
BRANCH  16  17
ATOM     17  C   UNL     1      33.810 -12.210 -25.303  0.00  0.00    -0.045 C 
BRANCH  17  18
ATOM     18  N   UNL     1      33.212 -13.335 -24.585  0.00  0.00    +0.386 N 
ATOM     19  C   UNL     1      33.093 -14.498 -25.465  0.00  0.00    -0.101 C 
ATOM     20  C   UNL     1      34.005 -13.666 -23.403  0.00  0.00    -0.101 C 
ATOM     21  H   UNL     1      32.276 -13.064 -24.282  0.00  0.00    -0.080 HD
ENDBRANCH  17  18
ENDBRANCH  16  17
ENDBRANCH  15  16
ENDBRANCH   1  15
TORSDOF 6
ENDMDL
MODEL 9
REMARK VINA RESULT:      -7.4      5.962      9.300
REMARK  Name = 2444
REMARK  6 active torsions:
REMARK  status: ('A' for Active; 'I' for Inactive)
REMARK    1  A    between atoms: C_1  and  C_3
REMARK    2  A    between atoms: C_1  and  C_9
REMARK    3  A    between atoms: C_1  and  O_15
REMARK    4  A    between atoms: O_15  and  C_16
REMARK    5  A    between atoms: C_16  and  C_17
REMARK    6  A    between atoms: C_17  and  N_18
REMARK                            x       y       z     vdW  Elec       q    Type
REMARK                         _______ _______ _______ _____ _____    ______ ____
ROOT
ATOM      1  C   UNL     1      35.537 -23.152 -15.214  0.00  0.00    +0.160 C 
ENDROOT
BRANCH   1   3
ATOM      2 BR   UNL     1      29.477 -24.314 -15.134  0.00  0.00    -0.049 Br
ATOM      3  C   UNL     1      34.048 -23.437 -15.195  0.00  0.00    +0.009 C 
ATOM      4  C   UNL     1      33.466 -23.899 -14.028  0.00  0.00    -0.001 C 
ATOM      5  C   UNL     1      33.307 -23.226 -16.343  0.00  0.00    -0.001 C 
ATOM      6  C   UNL     1      32.097 -24.162 -14.010  0.00  0.00    +0.006 C 
ATOM      7  C   UNL     1      31.937 -23.488 -16.325  0.00  0.00    +0.006 C 
ATOM      8  C   UNL     1      31.332 -23.957 -15.158  0.00  0.00    +0.035 C 
ENDBRANCH   1   3
BRANCH   1   9
ATOM      9  C   UNL     1      36.334 -24.120 -14.364  0.00  0.00    +0.009 C 
ATOM     10  C   UNL     1      36.921 -23.665 -13.197  0.00  0.00    -0.002 C 
ATOM     11  C   UNL     1      36.456 -25.435 -14.774  0.00  0.00    -0.002 C 
ATOM     12  C   UNL     1      37.654 -24.556 -12.414  0.00  0.00    -0.000 C 
ATOM     13  C   UNL     1      37.190 -26.326 -13.991  0.00  0.00    -0.000 C 
ATOM     14  C   UNL     1      37.789 -25.886 -12.810  0.00  0.00    -0.000 C 
ENDBRANCH   1   9
BRANCH   1  15
ATOM     15  O   UNL     1      36.042 -23.133 -16.543  0.00  0.00    -0.350 OA
BRANCH  15  16
ATOM     16  C   UNL     1      36.624 -21.876 -16.861  0.00  0.00    +0.120 C 
BRANCH  16  17
ATOM     17  C   UNL     1      36.886 -21.823 -18.358  0.00  0.00    -0.045 C 
BRANCH  17  18
ATOM     18  N   UNL     1      35.891 -20.988 -19.027  0.00  0.00    +0.386 N 
ATOM     19  C   UNL     1      36.492 -20.286 -20.162  0.00  0.00    -0.101 C 
ATOM     20  C   UNL     1      34.757 -21.798 -19.468  0.00  0.00    -0.101 C 
ATOM     21  H   UNL     1      35.553 -20.292 -18.362  0.00  0.00    -0.080 HD
ENDBRANCH  17  18
ENDBRANCH  16  17
ENDBRANCH  15  16
ENDBRANCH   1  15
TORSDOF 6
ENDMDL
