MODEL 1
REMARK VINA RESULT:      -7.6      0.000      0.000
REMARK  Name = 27661
REMARK  3 active torsions:
REMARK  status: ('A' for Active; 'I' for Inactive)
REMARK    1  A    between atoms: C_5  and  O_11
REMARK    2  A    between atoms: C_6  and  O_9
REMARK    3  A    between atoms: O_11  and  N_14
REMARK                            x       y       z     vdW  Elec       q    Type
REMARK                         _______ _______ _______ _____ _____    ______ ____
ROOT
ATOM      1  O   UNL     1      36.290 -24.863 -13.602  0.00  0.00    -0.347 OA
ATOM      2  O   UNL     1      38.520 -23.615 -11.922  0.00  0.00    -0.347 OA
ATOM      3  C   UNL     1      38.170 -24.990 -12.158  0.00  0.00    +0.190 C 
ATOM      4  C   UNL     1      36.657 -25.051 -12.223  0.00  0.00    +0.175 C 
ATOM      5  C   UNL     1      38.572 -25.438 -13.543  0.00  0.00    +0.259 C 
ATOM      6  C   UNL     1      36.223 -23.866 -11.396  0.00  0.00    +0.170 C 
ATOM      7  C   UNL     1      37.483 -24.835 -14.401  0.00  0.00    +0.191 C 
ATOM      8  C   UNL     1      37.327 -22.860 -11.656  0.00  0.00    +0.174 C 
ENDROOT
BRANCH   6   9
ATOM      9  O   UNL     1      36.236 -24.211 -10.015  0.00  0.00    -0.379 OA
ATOM     10  H   UNL     1      35.721 -23.558  -9.515  0.00  0.00    +0.211 HD
ENDBRANCH   6   9
BRANCH   5  11
ATOM     11  O   UNL     1      39.855 -24.997 -13.927  0.00  0.00    -0.334 OA
BRANCH  11  14
ATOM     12  O   UNL     1      40.507 -25.905 -15.849  0.00  0.00    -0.090 OA
ATOM     13  O   UNL     1      41.287 -26.762 -13.944  0.00  0.00    -0.090 OA
ATOM     14  N   UNL     1      40.621 -25.979 -14.624  0.00  0.00    +0.218 N 
ENDBRANCH  11  14
ENDBRANCH   5  11
TORSDOF 3
ENDMDL
MODEL 2
REMARK VINA RESULT:      -6.9      1.578      2.594
REMARK  Name = 27661
REMARK  3 active torsions:
REMARK  status: ('A' for Active; 'I' for Inactive)
REMARK    1  A    between atoms: C_5  and  O_11
REMARK    2  A    between atoms: C_6  and  O_9
REMARK    3  A    between atoms: O_11  and  N_14
REMARK                            x       y       z     vdW  Elec       q    Type
REMARK                         _______ _______ _______ _____ _____    ______ ____
ROOT
ATOM      1  O   UNL     1      36.479 -25.277 -12.337  0.00  0.00    -0.347 OA
ATOM      2  O   UNL     1      36.832 -25.089 -15.369  0.00  0.00    -0.347 OA
ATOM      3  C   UNL     1      37.538 -24.447 -14.293  0.00  0.00    +0.190 C 
ATOM      4  C   UNL     1      36.514 -24.139 -13.219  0.00  0.00    +0.175 C 
ATOM      5  C   UNL     1      38.469 -25.404 -13.588  0.00  0.00    +0.259 C 
ATOM      6  C   UNL     1      35.221 -24.031 -13.990  0.00  0.00    +0.170 C 
ATOM      7  C   UNL     1      37.516 -26.193 -12.719  0.00  0.00    +0.191 C 
ATOM      8  C   UNL     1      35.419 -25.033 -15.110  0.00  0.00    +0.174 C 
ENDROOT
BRANCH   6   9
ATOM      9  O   UNL     1      35.103 -22.731 -14.556  0.00  0.00    -0.379 OA
ATOM     10  H   UNL     1      34.242 -22.647 -14.995  0.00  0.00    +0.211 HD
ENDBRANCH   6   9
BRANCH   5  11
ATOM     11  O   UNL     1      39.196 -26.233 -14.467  0.00  0.00    -0.334 OA
BRANCH  11  14
ATOM     12  O   UNL     1      40.938 -24.880 -14.738  0.00  0.00    -0.090 OA
ATOM     13  O   UNL     1      41.309 -26.982 -14.095  0.00  0.00    -0.090 OA
ATOM     14  N   UNL     1      40.607 -26.025 -14.427  0.00  0.00    +0.218 N 
ENDBRANCH  11  14
ENDBRANCH   5  11
TORSDOF 3
ENDMDL
MODEL 3
REMARK VINA RESULT:      -6.5      1.559      1.969
REMARK  Name = 27661
REMARK  3 active torsions:
REMARK  status: ('A' for Active; 'I' for Inactive)
REMARK    1  A    between atoms: C_5  and  O_11
REMARK    2  A    between atoms: C_6  and  O_9
REMARK    3  A    between atoms: O_11  and  N_14
REMARK                            x       y       z     vdW  Elec       q    Type
REMARK                         _______ _______ _______ _____ _____    ______ ____
ROOT
ATOM      1  O   UNL     1      36.601 -23.717 -15.082  0.00  0.00    -0.347 OA
ATOM      2  O   UNL     1      37.098 -25.099 -12.399  0.00  0.00    -0.347 OA
ATOM      3  C   UNL     1      36.774 -25.635 -13.693  0.00  0.00    +0.190 C 
ATOM      4  C   UNL     1      35.808 -24.663 -14.340  0.00  0.00    +0.175 C 
ATOM      5  C   UNL     1      37.959 -25.587 -14.629  0.00  0.00    +0.259 C 
ATOM      6  C   UNL     1      35.149 -23.989 -13.163  0.00  0.00    +0.170 C 
ATOM      7  C   UNL     1      37.975 -24.134 -15.046  0.00  0.00    +0.191 C 
ATOM      8  C   UNL     1      36.260 -23.962 -12.133  0.00  0.00    +0.174 C 
ENDROOT
BRANCH   6   9
ATOM      9  O   UNL     1      34.090 -24.803 -12.671  0.00  0.00    -0.379 OA
ATOM     10  H   UNL     1      33.613 -25.198 -13.418  0.00  0.00    +0.211 HD
ENDBRANCH   6   9
BRANCH   5  11
ATOM     11  O   UNL     1      39.171 -25.978 -14.024  0.00  0.00    -0.334 OA
BRANCH  11  14
ATOM     12  O   UNL     1      40.980 -24.694 -14.168  0.00  0.00    -0.090 OA
ATOM     13  O   UNL     1      40.555 -26.129 -15.821  0.00  0.00    -0.090 OA
ATOM     14  N   UNL     1      40.335 -25.572 -14.743  0.00  0.00    +0.218 N 
ENDBRANCH  11  14
ENDBRANCH   5  11
TORSDOF 3
ENDMDL
MODEL 4
REMARK VINA RESULT:      -6.5      2.019      2.492
REMARK  Name = 27661
REMARK  3 active torsions:
REMARK  status: ('A' for Active; 'I' for Inactive)
REMARK    1  A    between atoms: C_5  and  O_11
REMARK    2  A    between atoms: C_6  and  O_9
REMARK    3  A    between atoms: O_11  and  N_14
REMARK                            x       y       z     vdW  Elec       q    Type
REMARK                         _______ _______ _______ _____ _____    ______ ____
ROOT
ATOM      1  O   UNL     1      34.552 -23.861 -12.973  0.00  0.00    -0.347 OA
ATOM      2  O   UNL     1      37.579 -24.153 -12.651  0.00  0.00    -0.347 OA
ATOM      3  C   UNL     1      36.529 -25.136 -12.658  0.00  0.00    +0.190 C 
ATOM      4  C   UNL     1      35.339 -24.511 -11.958  0.00  0.00    +0.175 C 
ATOM      5  C   UNL     1      35.998 -25.374 -14.051  0.00  0.00    +0.259 C 
ATOM      6  C   UNL     1      35.969 -23.488 -11.044  0.00  0.00    +0.170 C 
ATOM      7  C   UNL     1      35.106 -24.171 -14.261  0.00  0.00    +0.191 C 
ATOM      8  C   UNL     1      37.180 -23.038 -11.837  0.00  0.00    +0.174 C 
ENDROOT
BRANCH   6   9
ATOM      9  O   UNL     1      36.414 -24.118  -9.849  0.00  0.00    -0.379 OA
ATOM     10  H   UNL     1      36.384 -25.081  -9.961  0.00  0.00    +0.211 HD
ENDBRANCH   6   9
BRANCH   5  11
ATOM     11  O   UNL     1      37.007 -25.463 -15.031  0.00  0.00    -0.334 OA
BRANCH  11  14
ATOM     12  O   UNL     1      38.321 -27.234 -14.743  0.00  0.00    -0.090 OA
ATOM     13  O   UNL     1      36.683 -27.354 -16.250  0.00  0.00    -0.090 OA
ATOM     14  N   UNL     1      37.359 -26.802 -15.380  0.00  0.00    +0.218 N 
ENDBRANCH  11  14
ENDBRANCH   5  11
TORSDOF 3
ENDMDL
MODEL 5
REMARK VINA RESULT:      -6.4      2.352      4.692
REMARK  Name = 27661
REMARK  3 active torsions:
REMARK  status: ('A' for Active; 'I' for Inactive)
REMARK    1  A    between atoms: C_5  and  O_11
REMARK    2  A    between atoms: C_6  and  O_9
REMARK    3  A    between atoms: O_11  and  N_14
REMARK                            x       y       z     vdW  Elec       q    Type
REMARK                         _______ _______ _______ _____ _____    ______ ____
ROOT
ATOM      1  O   UNL     1      37.047 -23.995 -15.185  0.00  0.00    -0.347 OA
ATOM      2  O   UNL     1      36.929 -26.160 -13.028  0.00  0.00    -0.347 OA
ATOM      3  C   UNL     1      37.565 -24.870 -13.039  0.00  0.00    +0.190 C 
ATOM      4  C   UNL     1      38.091 -24.654 -14.444  0.00  0.00    +0.175 C 
ATOM      5  C   UNL     1      36.560 -23.752 -12.894  0.00  0.00    +0.259 C 
ATOM      6  C   UNL     1      38.298 -26.057 -14.959  0.00  0.00    +0.170 C 
ATOM      7  C   UNL     1      35.977 -23.666 -14.286  0.00  0.00    +0.191 C 
ATOM      8  C   UNL     1      37.187 -26.828 -14.274  0.00  0.00    +0.174 C 
ENDROOT
BRANCH   6   9
ATOM      9  O   UNL     1      39.549 -26.559 -14.505  0.00  0.00    -0.379 OA
ATOM     10  H   UNL     1      40.239 -26.340 -15.152  0.00  0.00    +0.211 HD
ENDBRANCH   6   9
BRANCH   5  11
ATOM     11  O   UNL     1      35.573 -24.005 -11.920  0.00  0.00    -0.334 OA
BRANCH  11  14
ATOM     12  O   UNL     1      36.977 -23.072 -10.470  0.00  0.00    -0.090 OA
ATOM     13  O   UNL     1      35.450 -24.506  -9.706  0.00  0.00    -0.090 OA
ATOM     14  N   UNL     1      36.032 -23.856 -10.577  0.00  0.00    +0.218 N 
ENDBRANCH  11  14
ENDBRANCH   5  11
TORSDOF 3
ENDMDL
MODEL 6
REMARK VINA RESULT:      -6.3      2.582      3.992
REMARK  Name = 27661
REMARK  3 active torsions:
REMARK  status: ('A' for Active; 'I' for Inactive)
REMARK    1  A    between atoms: C_5  and  O_11
REMARK    2  A    between atoms: C_6  and  O_9
REMARK    3  A    between atoms: O_11  and  N_14
REMARK                            x       y       z     vdW  Elec       q    Type
REMARK                         _______ _______ _______ _____ _____    ______ ____
ROOT
ATOM      1  O   UNL     1      35.903 -25.711 -15.568  0.00  0.00    -0.347 OA
ATOM      2  O   UNL     1      36.308 -22.790 -14.756  0.00  0.00    -0.347 OA
ATOM      3  C   UNL     1      35.880 -23.933 -13.995  0.00  0.00    +0.190 C 
ATOM      4  C   UNL     1      35.022 -24.777 -14.916  0.00  0.00    +0.175 C 
ATOM      5  C   UNL     1      37.032 -24.859 -13.685  0.00  0.00    +0.259 C 
ATOM      6  C   UNL     1      34.488 -23.775 -15.911  0.00  0.00    +0.170 C 
ATOM      7  C   UNL     1      37.215 -25.589 -14.997  0.00  0.00    +0.191 C 
ATOM      8  C   UNL     1      35.626 -22.780 -16.021  0.00  0.00    +0.174 C 
ENDROOT
BRANCH   6   9
ATOM      9  O   UNL     1      33.353 -23.113 -15.367  0.00  0.00    -0.379 OA
ATOM     10  H   UNL     1      32.628 -23.133 -16.011  0.00  0.00    +0.211 HD
ENDBRANCH   6   9
BRANCH   5  11
ATOM     11  O   UNL     1      38.204 -24.187 -13.284  0.00  0.00    -0.334 OA
BRANCH  11  14
ATOM     12  O   UNL     1      37.769 -24.668 -11.157  0.00  0.00    -0.090 OA
ATOM     13  O   UNL     1      38.636 -22.672 -11.645  0.00  0.00    -0.090 OA
ATOM     14  N   UNL     1      38.208 -23.797 -11.911  0.00  0.00    +0.218 N 
ENDBRANCH  11  14
ENDBRANCH   5  11
TORSDOF 3
ENDMDL
MODEL 7
REMARK VINA RESULT:      -6.2      3.463      5.233
REMARK  Name = 27661
REMARK  3 active torsions:
REMARK  status: ('A' for Active; 'I' for Inactive)
REMARK    1  A    between atoms: C_5  and  O_11
REMARK    2  A    between atoms: C_6  and  O_9
REMARK    3  A    between atoms: O_11  and  N_14
REMARK                            x       y       z     vdW  Elec       q    Type
REMARK                         _______ _______ _______ _____ _____    ______ ____
ROOT
ATOM      1  O   UNL     1      37.720 -23.581 -14.407  0.00  0.00    -0.347 OA
ATOM      2  O   UNL     1      36.082 -25.922 -15.499  0.00  0.00    -0.347 OA
ATOM      3  C   UNL     1      35.702 -24.800 -14.683  0.00  0.00    +0.190 C 
ATOM      4  C   UNL     1      36.861 -24.528 -13.745  0.00  0.00    +0.175 C 
ATOM      5  C   UNL     1      35.630 -23.524 -15.488  0.00  0.00    +0.259 C 
ATOM      6  C   UNL     1      37.543 -25.869 -13.633  0.00  0.00    +0.170 C 
ATOM      7  C   UNL     1      37.088 -23.150 -15.622  0.00  0.00    +0.191 C 
ATOM      8  C   UNL     1      37.315 -26.470 -15.006  0.00  0.00    +0.174 C 
ENDROOT
BRANCH   6   9
ATOM      9  O   UNL     1      36.874 -26.671 -12.667  0.00  0.00    -0.379 OA
ATOM     10  H   UNL     1      35.917 -26.532 -12.738  0.00  0.00    +0.211 HD
ENDBRANCH   6   9
BRANCH   5  11
ATOM     11  O   UNL     1      35.005 -23.684 -16.742  0.00  0.00    -0.334 OA
BRANCH  11  14
ATOM     12  O   UNL     1      33.286 -22.899 -17.914  0.00  0.00    -0.090 OA
ATOM     13  O   UNL     1      33.039 -23.186 -15.716  0.00  0.00    -0.090 OA
ATOM     14  N   UNL     1      33.657 -23.216 -16.782  0.00  0.00    +0.218 N 
ENDBRANCH  11  14
ENDBRANCH   5  11
TORSDOF 3
ENDMDL
MODEL 8
REMARK VINA RESULT:      -6.0      9.817     11.197
REMARK  Name = 27661
REMARK  3 active torsions:
REMARK  status: ('A' for Active; 'I' for Inactive)
REMARK    1  A    between atoms: C_5  and  O_11
REMARK    2  A    between atoms: C_6  and  O_9
REMARK    3  A    between atoms: O_11  and  N_14
REMARK                            x       y       z     vdW  Elec       q    Type
REMARK                         _______ _______ _______ _____ _____    ______ ____
ROOT
ATOM      1  O   UNL     1      36.835 -18.588 -21.859  0.00  0.00    -0.347 OA
ATOM      2  O   UNL     1      33.950 -17.915 -21.097  0.00  0.00    -0.347 OA
ATOM      3  C   UNL     1      34.497 -18.996 -21.873  0.00  0.00    +0.190 C 
ATOM      4  C   UNL     1      35.654 -18.424 -22.666  0.00  0.00    +0.175 C 
ATOM      5  C   UNL     1      35.178 -20.021 -20.998  0.00  0.00    +0.259 C 
ATOM      6  C   UNL     1      35.302 -16.963 -22.795  0.00  0.00    +0.170 C 
ATOM      7  C   UNL     1      36.497 -19.350 -20.690  0.00  0.00    +0.191 C 
ATOM      8  C   UNL     1      34.574 -16.683 -21.495  0.00  0.00    +0.174 C 
ENDROOT
BRANCH   6   9
ATOM      9  O   UNL     1      34.394 -16.778 -23.875  0.00  0.00    -0.379 OA
ATOM     10  H   UNL     1      33.810 -16.028 -23.681  0.00  0.00    +0.211 HD
ENDBRANCH   6   9
BRANCH   5  11
ATOM     11  O   UNL     1      34.456 -20.333 -19.828  0.00  0.00    -0.334 OA
BRANCH  11  14
ATOM     12  O   UNL     1      32.933 -21.953 -19.817  0.00  0.00    -0.090 OA
ATOM     13  O   UNL     1      35.071 -22.494 -19.482  0.00  0.00    -0.090 OA
ATOM     14  N   UNL     1      34.137 -21.718 -19.695  0.00  0.00    +0.218 N 
ENDBRANCH  11  14
ENDBRANCH   5  11
TORSDOF 3
ENDMDL
MODEL 9
REMARK VINA RESULT:      -5.9     10.058     11.330
REMARK  Name = 27661
REMARK  3 active torsions:
REMARK  status: ('A' for Active; 'I' for Inactive)
REMARK    1  A    between atoms: C_5  and  O_11
REMARK    2  A    between atoms: C_6  and  O_9
REMARK    3  A    between atoms: O_11  and  N_14
REMARK                            x       y       z     vdW  Elec       q    Type
REMARK                         _______ _______ _______ _____ _____    ______ ____
ROOT
ATOM      1  O   UNL     1      33.587 -17.818 -21.281  0.00  0.00    -0.347 OA
ATOM      2  O   UNL     1      35.679 -19.058 -23.136  0.00  0.00    -0.347 OA
ATOM      3  C   UNL     1      35.806 -18.450 -21.839  0.00  0.00    +0.190 C 
ATOM      4  C   UNL     1      34.825 -17.296 -21.798  0.00  0.00    +0.175 C 
ATOM      5  C   UNL     1      35.289 -19.355 -20.747  0.00  0.00    +0.259 C 
ATOM      6  C   UNL     1      34.671 -16.916 -23.250  0.00  0.00    +0.170 C 
ATOM      7  C   UNL     1      33.792 -19.179 -20.870  0.00  0.00    +0.191 C 
ATOM      8  C   UNL     1      34.822 -18.248 -23.958  0.00  0.00    +0.174 C 
ENDROOT
BRANCH   6   9
ATOM      9  O   UNL     1      35.743 -16.067 -23.643  0.00  0.00    -0.379 OA
ATOM     10  H   UNL     1      35.421 -15.154 -23.716  0.00  0.00    +0.211 HD
ENDBRANCH   6   9
BRANCH   5  11
ATOM     11  O   UNL     1      35.679 -20.701 -20.898  0.00  0.00    -0.334 OA
BRANCH  11  14
ATOM     12  O   UNL     1      36.543 -20.844 -18.854  0.00  0.00    -0.090 OA
ATOM     13  O   UNL     1      35.189 -22.470 -19.557  0.00  0.00    -0.090 OA
ATOM     14  N   UNL     1      35.808 -21.410 -19.665  0.00  0.00    +0.218 N 
ENDBRANCH  11  14
ENDBRANCH   5  11
TORSDOF 3
ENDMDL
