MODEL 1
REMARK VINA RESULT:      -4.8      0.000      0.000
REMARK  Name = 5287648
REMARK  6 active torsions:
REMARK  status: ('A' for Active; 'I' for Inactive)
REMARK    1  A    between atoms: N_1  and  C_4
REMARK    2  A    between atoms: N_1  and  C_10
REMARK    3  A    between atoms: N_2  and  O_8
REMARK    4  A    between atoms: C_10  and  C_11
REMARK    5  A    between atoms: C_11  and  C_12
REMARK    6  A    between atoms: C_12  and  N_13
REMARK                            x       y       z     vdW  Elec       q    Type
REMARK                         _______ _______ _______ _____ _____    ______ ____
ROOT
ATOM      1  N   UNL     1      36.833 -24.611 -15.347  0.00  0.00    -0.238 NA
ENDROOT
BRANCH   1   4
ATOM      2  N   UNL     1      35.994 -26.798 -15.273  0.00  0.00    -0.237 N 
ATOM      3  N   UNL     1      34.744 -25.163 -14.312  0.00  0.00    -0.368 N 
ATOM      4  C   UNL     1      35.908 -25.450 -14.995  0.00  0.00    +0.215 C 
ATOM      5  H   UNL     1      35.387 -27.451 -14.856  0.00  0.00    +0.197 HD
ATOM      6  H   UNL     1      34.546 -24.236 -14.046  0.00  0.00    +0.159 HD
ATOM      7  H   UNL     1      34.112 -25.885 -14.092  0.00  0.00    +0.159 HD
BRANCH   2   8
ATOM      8  O   UNL     1      36.971 -27.187 -16.164  0.00  0.00    -0.287 OA
ATOM      9  H   UNL     1      36.664 -27.030 -17.070  0.00  0.00    +0.244 HD
ENDBRANCH   2   8
ENDBRANCH   1   4
BRANCH   1  10
ATOM     10  C   UNL     1      37.613 -23.991 -14.275  0.00  0.00    +0.126 C 
BRANCH  10  11
ATOM     11  C   UNL     1      38.300 -25.070 -13.446  0.00  0.00    +0.003 C 
BRANCH  11  12
ATOM     12  C   UNL     1      39.674 -25.428 -13.994  0.00  0.00    -0.084 C 
BRANCH  12  13
ATOM     13  N   UNL     1      39.630 -25.388 -15.477  0.00  0.00    +0.380 N 
ATOM     14  H   UNL     1      38.661 -25.427 -15.789  0.00  0.00    -0.089 HD
ATOM     15  H   UNL     1      40.141 -26.187 -15.854  0.00  0.00    -0.089 HD
ATOM     16  H   UNL     1      40.059 -24.523 -15.807  0.00  0.00    -0.089 HD
ENDBRANCH  12  13
ENDBRANCH  11  12
ENDBRANCH  10  11
ENDBRANCH   1  10
TORSDOF 6
ENDMDL
MODEL 2
REMARK VINA RESULT:      -4.5      2.886      3.693
REMARK  Name = 5287648
REMARK  6 active torsions:
REMARK  status: ('A' for Active; 'I' for Inactive)
REMARK    1  A    between atoms: N_1  and  C_4
REMARK    2  A    between atoms: N_1  and  C_10
REMARK    3  A    between atoms: N_2  and  O_8
REMARK    4  A    between atoms: C_10  and  C_11
REMARK    5  A    between atoms: C_11  and  C_12
REMARK    6  A    between atoms: C_12  and  N_13
REMARK                            x       y       z     vdW  Elec       q    Type
REMARK                         _______ _______ _______ _____ _____    ______ ____
ROOT
ATOM      1  N   UNL     1      36.594 -25.478 -11.771  0.00  0.00    -0.238 NA
ENDROOT
BRANCH   1   4
ATOM      2  N   UNL     1      35.006 -23.776 -12.057  0.00  0.00    -0.237 N 
ATOM      3  N   UNL     1      37.044 -23.182 -11.250  0.00  0.00    -0.368 N 
ATOM      4  C   UNL     1      36.258 -24.226 -11.693  0.00  0.00    +0.215 C 
ATOM      5  H   UNL     1      34.698 -22.869 -11.833  0.00  0.00    +0.197 HD
ATOM      6  H   UNL     1      37.968 -23.354 -10.955  0.00  0.00    +0.159 HD
ATOM      7  H   UNL     1      36.681 -22.268 -11.228  0.00  0.00    +0.159 HD
BRANCH   2   8
ATOM      8  O   UNL     1      34.207 -24.660 -12.751  0.00  0.00    -0.287 OA
ATOM      9  H   UNL     1      34.667 -25.510 -12.839  0.00  0.00    +0.244 HD
ENDBRANCH   2   8
ENDBRANCH   1   4
BRANCH   1  10
ATOM     10  C   UNL     1      37.868 -25.786 -12.423  0.00  0.00    +0.126 C 
BRANCH  10  11
ATOM     11  C   UNL     1      37.787 -25.440 -13.906  0.00  0.00    +0.003 C 
BRANCH  11  12
ATOM     12  C   UNL     1      37.111 -26.538 -14.715  0.00  0.00    -0.084 C 
BRANCH  12  13
ATOM     13  N   UNL     1      35.700 -26.154 -14.968  0.00  0.00    +0.380 N 
ATOM     14  H   UNL     1      35.656 -25.169 -15.227  0.00  0.00    -0.089 HD
ATOM     15  H   UNL     1      35.149 -26.308 -14.123  0.00  0.00    -0.089 HD
ATOM     16  H   UNL     1      35.324 -26.722 -15.727  0.00  0.00    -0.089 HD
ENDBRANCH  12  13
ENDBRANCH  11  12
ENDBRANCH  10  11
ENDBRANCH   1  10
TORSDOF 6
ENDMDL
MODEL 3
REMARK VINA RESULT:      -4.5      2.280      3.056
REMARK  Name = 5287648
REMARK  6 active torsions:
REMARK  status: ('A' for Active; 'I' for Inactive)
REMARK    1  A    between atoms: N_1  and  C_4
REMARK    2  A    between atoms: N_1  and  C_10
REMARK    3  A    between atoms: N_2  and  O_8
REMARK    4  A    between atoms: C_10  and  C_11
REMARK    5  A    between atoms: C_11  and  C_12
REMARK    6  A    between atoms: C_12  and  N_13
REMARK                            x       y       z     vdW  Elec       q    Type
REMARK                         _______ _______ _______ _____ _____    ______ ____
ROOT
ATOM      1  N   UNL     1      37.026 -24.797 -15.395  0.00  0.00    -0.238 NA
ENDROOT
BRANCH   1   4
ATOM      2  N   UNL     1      36.282 -26.997 -15.083  0.00  0.00    -0.237 N 
ATOM      3  N   UNL     1      35.659 -25.452 -13.539  0.00  0.00    -0.368 N 
ATOM      4  C   UNL     1      36.361 -25.673 -14.707  0.00  0.00    +0.215 C 
ATOM      5  H   UNL     1      35.931 -27.687 -14.474  0.00  0.00    +0.197 HD
ATOM      6  H   UNL     1      35.626 -24.548 -13.149  0.00  0.00    +0.159 HD
ATOM      7  H   UNL     1      35.193 -26.197 -13.097  0.00  0.00    +0.159 HD
BRANCH   2   8
ATOM      8  O   UNL     1      36.719 -27.309 -16.352  0.00  0.00    -0.287 OA
ATOM      9  H   UNL     1      37.687 -27.255 -16.383  0.00  0.00    +0.244 HD
ENDBRANCH   2   8
ENDBRANCH   1   4
BRANCH   1  10
ATOM     10  C   UNL     1      36.518 -23.424 -15.395  0.00  0.00    +0.126 C 
BRANCH  10  11
ATOM     11  C   UNL     1      37.524 -22.500 -16.073  0.00  0.00    +0.003 C 
BRANCH  11  12
ATOM     12  C   UNL     1      36.927 -21.786 -17.277  0.00  0.00    -0.084 C 
BRANCH  12  13
ATOM     13  N   UNL     1      37.397 -20.378 -17.288  0.00  0.00    +0.380 N 
ATOM     14  H   UNL     1      37.066 -19.903 -16.449  0.00  0.00    -0.089 HD
ATOM     15  H   UNL     1      37.031 -19.903 -18.114  0.00  0.00    -0.089 HD
ATOM     16  H   UNL     1      38.417 -20.360 -17.309  0.00  0.00    -0.089 HD
ENDBRANCH  12  13
ENDBRANCH  11  12
ENDBRANCH  10  11
ENDBRANCH   1  10
TORSDOF 6
ENDMDL
MODEL 4
REMARK VINA RESULT:      -4.5      1.445      1.821
REMARK  Name = 5287648
REMARK  6 active torsions:
REMARK  status: ('A' for Active; 'I' for Inactive)
REMARK    1  A    between atoms: N_1  and  C_4
REMARK    2  A    between atoms: N_1  and  C_10
REMARK    3  A    between atoms: N_2  and  O_8
REMARK    4  A    between atoms: C_10  and  C_11
REMARK    5  A    between atoms: C_11  and  C_12
REMARK    6  A    between atoms: C_12  and  N_13
REMARK                            x       y       z     vdW  Elec       q    Type
REMARK                         _______ _______ _______ _____ _____    ______ ____
ROOT
ATOM      1  N   UNL     1      36.861 -24.655 -15.373  0.00  0.00    -0.238 NA
ENDROOT
BRANCH   1   4
ATOM      2  N   UNL     1      35.965 -26.819 -15.270  0.00  0.00    -0.237 N 
ATOM      3  N   UNL     1      34.816 -25.159 -14.229  0.00  0.00    -0.368 N 
ATOM      4  C   UNL     1      35.933 -25.472 -14.977  0.00  0.00    +0.215 C 
ATOM      5  H   UNL     1      35.364 -27.459 -14.825  0.00  0.00    +0.197 HD
ATOM      6  H   UNL     1      34.659 -24.230 -13.945  0.00  0.00    +0.159 HD
ATOM      7  H   UNL     1      34.177 -25.866 -13.981  0.00  0.00    +0.159 HD
BRANCH   2   8
ATOM      8  O   UNL     1      36.882 -27.226 -16.216  0.00  0.00    -0.287 OA
ATOM      9  H   UNL     1      36.910 -28.196 -16.242  0.00  0.00    +0.244 HD
ENDBRANCH   2   8
ENDBRANCH   1   4
BRANCH   1  10
ATOM     10  C   UNL     1      37.542 -23.872 -14.341  0.00  0.00    +0.126 C 
BRANCH  10  11
ATOM     11  C   UNL     1      38.398 -24.789 -13.475  0.00  0.00    +0.003 C 
BRANCH  11  12
ATOM     12  C   UNL     1      38.033 -24.691 -12.000  0.00  0.00    -0.084 C 
BRANCH  12  13
ATOM     13  N   UNL     1      37.786 -23.269 -11.656  0.00  0.00    +0.380 N 
ATOM     14  H   UNL     1      38.044 -23.105 -10.683  0.00  0.00    -0.089 HD
ATOM     15  H   UNL     1      36.797 -23.054 -11.786  0.00  0.00    -0.089 HD
ATOM     16  H   UNL     1      38.347 -22.670 -12.262  0.00  0.00    -0.089 HD
ENDBRANCH  12  13
ENDBRANCH  11  12
ENDBRANCH  10  11
ENDBRANCH   1  10
TORSDOF 6
ENDMDL
MODEL 5
REMARK VINA RESULT:      -4.5      2.009      3.547
REMARK  Name = 5287648
REMARK  6 active torsions:
REMARK  status: ('A' for Active; 'I' for Inactive)
REMARK    1  A    between atoms: N_1  and  C_4
REMARK    2  A    between atoms: N_1  and  C_10
REMARK    3  A    between atoms: N_2  and  O_8
REMARK    4  A    between atoms: C_10  and  C_11
REMARK    5  A    between atoms: C_11  and  C_12
REMARK    6  A    between atoms: C_12  and  N_13
REMARK                            x       y       z     vdW  Elec       q    Type
REMARK                         _______ _______ _______ _____ _____    ______ ____
ROOT
ATOM      1  N   UNL     1      38.635 -24.218 -13.494  0.00  0.00    -0.238 NA
ENDROOT
BRANCH   1   4
ATOM      2  N   UNL     1      38.236 -25.720 -15.249  0.00  0.00    -0.237 N 
ATOM      3  N   UNL     1      39.990 -26.158 -13.874  0.00  0.00    -0.368 N 
ATOM      4  C   UNL     1      38.947 -25.296 -14.146  0.00  0.00    +0.215 C 
ATOM      5  H   UNL     1      38.576 -26.428 -15.841  0.00  0.00    +0.197 HD
ATOM      6  H   UNL     1      40.587 -25.983 -13.111  0.00  0.00    +0.159 HD
ATOM      7  H   UNL     1      40.136 -26.948 -14.444  0.00  0.00    +0.159 HD
BRANCH   2   8
ATOM      8  O   UNL     1      37.027 -25.100 -15.483  0.00  0.00    -0.287 OA
ATOM      9  H   UNL     1      36.374 -25.413 -14.837  0.00  0.00    +0.244 HD
ENDBRANCH   2   8
ENDBRANCH   1   4
BRANCH   1  10
ATOM     10  C   UNL     1      38.140 -24.387 -12.127  0.00  0.00    +0.126 C 
BRANCH  10  11
ATOM     11  C   UNL     1      37.100 -23.317 -11.818  0.00  0.00    +0.003 C 
BRANCH  11  12
ATOM     12  C   UNL     1      35.754 -23.621 -12.460  0.00  0.00    -0.084 C 
BRANCH  12  13
ATOM     13  N   UNL     1      35.658 -25.079 -12.718  0.00  0.00    +0.380 N 
ATOM     14  H   UNL     1      36.590 -25.489 -12.700  0.00  0.00    -0.089 HD
ATOM     15  H   UNL     1      35.235 -25.235 -13.634  0.00  0.00    -0.089 HD
ATOM     16  H   UNL     1      35.081 -25.514 -11.998  0.00  0.00    -0.089 HD
ENDBRANCH  12  13
ENDBRANCH  11  12
ENDBRANCH  10  11
ENDBRANCH   1  10
TORSDOF 6
ENDMDL
MODEL 6
REMARK VINA RESULT:      -4.4     10.793     11.646
REMARK  Name = 5287648
REMARK  6 active torsions:
REMARK  status: ('A' for Active; 'I' for Inactive)
REMARK    1  A    between atoms: N_1  and  C_4
REMARK    2  A    between atoms: N_1  and  C_10
REMARK    3  A    between atoms: N_2  and  O_8
REMARK    4  A    between atoms: C_10  and  C_11
REMARK    5  A    between atoms: C_11  and  C_12
REMARK    6  A    between atoms: C_12  and  N_13
REMARK                            x       y       z     vdW  Elec       q    Type
REMARK                         _______ _______ _______ _____ _____    ______ ____
ROOT
ATOM      1  N   UNL     1      34.531 -18.742 -22.310  0.00  0.00    -0.238 NA
ENDROOT
BRANCH   1   4
ATOM      2  N   UNL     1      35.232 -17.216 -20.675  0.00  0.00    -0.237 N 
ATOM      3  N   UNL     1      36.019 -19.341 -20.530  0.00  0.00    -0.368 N 
ATOM      4  C   UNL     1      35.222 -18.472 -21.246  0.00  0.00    +0.215 C 
ATOM      5  H   UNL     1      35.609 -17.059 -19.780  0.00  0.00    +0.197 HD
ATOM      6  H   UNL     1      36.109 -20.278 -20.821  0.00  0.00    +0.159 HD
ATOM      7  H   UNL     1      36.497 -19.025 -19.729  0.00  0.00    +0.159 HD
BRANCH   2   8
ATOM      8  O   UNL     1      34.687 -16.192 -21.420  0.00  0.00    -0.287 OA
ATOM      9  H   UNL     1      35.354 -15.851 -22.038  0.00  0.00    +0.244 HD
ENDBRANCH   2   8
ENDBRANCH   1   4
BRANCH   1  10
ATOM     10  C   UNL     1      35.276 -18.958 -23.551  0.00  0.00    +0.126 C 
BRANCH  10  11
ATOM     11  C   UNL     1      34.396 -18.619 -24.749  0.00  0.00    +0.003 C 
BRANCH  11  12
ATOM     12  C   UNL     1      34.531 -17.161 -25.167  0.00  0.00    -0.084 C 
BRANCH  12  13
ATOM     13  N   UNL     1      35.428 -16.464 -24.212  0.00  0.00    +0.380 N 
ATOM     14  H   UNL     1      35.195 -16.744 -23.260  0.00  0.00    -0.089 HD
ATOM     15  H   UNL     1      35.309 -15.455 -24.308  0.00  0.00    -0.089 HD
ATOM     16  H   UNL     1      36.397 -16.713 -24.412  0.00  0.00    -0.089 HD
ENDBRANCH  12  13
ENDBRANCH  11  12
ENDBRANCH  10  11
ENDBRANCH   1  10
TORSDOF 6
ENDMDL
MODEL 7
REMARK VINA RESULT:      -4.4     11.843     12.749
REMARK  Name = 5287648
REMARK  6 active torsions:
REMARK  status: ('A' for Active; 'I' for Inactive)
REMARK    1  A    between atoms: N_1  and  C_4
REMARK    2  A    between atoms: N_1  and  C_10
REMARK    3  A    between atoms: N_2  and  O_8
REMARK    4  A    between atoms: C_10  and  C_11
REMARK    5  A    between atoms: C_11  and  C_12
REMARK    6  A    between atoms: C_12  and  N_13
REMARK                            x       y       z     vdW  Elec       q    Type
REMARK                         _______ _______ _______ _____ _____    ______ ____
ROOT
ATOM      1  N   UNL     1      34.706 -15.936 -21.110  0.00  0.00    -0.238 NA
ENDROOT
BRANCH   1   4
ATOM      2  N   UNL     1      35.785 -17.178 -22.780  0.00  0.00    -0.237 N 
ATOM      3  N   UNL     1      35.202 -18.268 -20.875  0.00  0.00    -0.368 N 
ATOM      4  C   UNL     1      35.190 -17.060 -21.541  0.00  0.00    +0.215 C 
ATOM      5  H   UNL     1      36.304 -17.976 -23.030  0.00  0.00    +0.197 HD
ATOM      6  H   UNL     1      34.809 -18.337 -19.975  0.00  0.00    +0.159 HD
ATOM      7  H   UNL     1      35.604 -19.060 -21.300  0.00  0.00    +0.159 HD
BRANCH   2   8
ATOM      8  O   UNL     1      35.619 -16.121 -23.650  0.00  0.00    -0.287 OA
ATOM      9  H   UNL     1      34.984 -15.491 -23.276  0.00  0.00    +0.244 HD
ENDBRANCH   2   8
ENDBRANCH   1   4
BRANCH   1  10
ATOM     10  C   UNL     1      33.249 -15.834 -21.007  0.00  0.00    +0.126 C 
BRANCH  10  11
ATOM     11  C   UNL     1      32.807 -14.409 -21.321  0.00  0.00    +0.003 C 
BRANCH  11  12
ATOM     12  C   UNL     1      32.874 -14.102 -22.811  0.00  0.00    -0.084 C 
BRANCH  12  13
ATOM     13  N   UNL     1      34.229 -13.598 -23.142  0.00  0.00    +0.380 N 
ATOM     14  H   UNL     1      34.616 -13.108 -22.336  0.00  0.00    -0.089 HD
ATOM     15  H   UNL     1      34.170 -12.956 -23.933  0.00  0.00    -0.089 HD
ATOM     16  H   UNL     1      34.834 -14.383 -23.385  0.00  0.00    -0.089 HD
ENDBRANCH  12  13
ENDBRANCH  11  12
ENDBRANCH  10  11
ENDBRANCH   1  10
TORSDOF 6
ENDMDL
MODEL 8
REMARK VINA RESULT:      -4.4      2.911      3.559
REMARK  Name = 5287648
REMARK  6 active torsions:
REMARK  status: ('A' for Active; 'I' for Inactive)
REMARK    1  A    between atoms: N_1  and  C_4
REMARK    2  A    between atoms: N_1  and  C_10
REMARK    3  A    between atoms: N_2  and  O_8
REMARK    4  A    between atoms: C_10  and  C_11
REMARK    5  A    between atoms: C_11  and  C_12
REMARK    6  A    between atoms: C_12  and  N_13
REMARK                            x       y       z     vdW  Elec       q    Type
REMARK                         _______ _______ _______ _____ _____    ______ ____
ROOT
ATOM      1  N   UNL     1      37.502 -23.208 -13.946  0.00  0.00    -0.238 NA
ENDROOT
BRANCH   1   4
ATOM      2  N   UNL     1      37.493 -23.154 -11.602  0.00  0.00    -0.237 N 
ATOM      3  N   UNL     1      35.502 -23.460 -12.651  0.00  0.00    -0.368 N 
ATOM      4  C   UNL     1      36.858 -23.275 -12.821  0.00  0.00    +0.215 C 
ATOM      5  H   UNL     1      36.988 -23.028 -10.768  0.00  0.00    +0.197 HD
ATOM      6  H   UNL     1      34.917 -23.562 -13.436  0.00  0.00    +0.159 HD
ATOM      7  H   UNL     1      35.119 -23.489 -11.744  0.00  0.00    +0.159 HD
BRANCH   2   8
ATOM      8  O   UNL     1      38.870 -23.218 -11.612  0.00  0.00    -0.287 OA
ATOM      9  H   UNL     1      39.225 -22.482 -12.135  0.00  0.00    +0.244 HD
ENDBRANCH   2   8
ENDBRANCH   1   4
BRANCH   1  10
ATOM     10  C   UNL     1      37.353 -24.337 -14.866  0.00  0.00    +0.126 C 
BRANCH  10  11
ATOM     11  C   UNL     1      38.117 -25.543 -14.334  0.00  0.00    +0.003 C 
BRANCH  11  12
ATOM     12  C   UNL     1      37.271 -26.808 -14.340  0.00  0.00    -0.084 C 
BRANCH  12  13
ATOM     13  N   UNL     1      36.018 -26.550 -15.091  0.00  0.00    +0.380 N 
ATOM     14  H   UNL     1      36.221 -26.511 -16.089  0.00  0.00    -0.089 HD
ATOM     15  H   UNL     1      35.619 -25.660 -14.790  0.00  0.00    -0.089 HD
ATOM     16  H   UNL     1      35.351 -27.300 -14.908  0.00  0.00    -0.089 HD
ENDBRANCH  12  13
ENDBRANCH  11  12
ENDBRANCH  10  11
ENDBRANCH   1  10
TORSDOF 6
ENDMDL
MODEL 9
REMARK VINA RESULT:      -4.4      2.574      3.042
REMARK  Name = 5287648
REMARK  6 active torsions:
REMARK  status: ('A' for Active; 'I' for Inactive)
REMARK    1  A    between atoms: N_1  and  C_4
REMARK    2  A    between atoms: N_1  and  C_10
REMARK    3  A    between atoms: N_2  and  O_8
REMARK    4  A    between atoms: C_10  and  C_11
REMARK    5  A    between atoms: C_11  and  C_12
REMARK    6  A    between atoms: C_12  and  N_13
REMARK                            x       y       z     vdW  Elec       q    Type
REMARK                         _______ _______ _______ _____ _____    ______ ____
ROOT
ATOM      1  N   UNL     1      37.271 -25.941 -13.049  0.00  0.00    -0.238 NA
ENDROOT
BRANCH   1   4
ATOM      2  N   UNL     1      38.006 -25.413 -15.212  0.00  0.00    -0.237 N 
ATOM      3  N   UNL     1      36.074 -26.592 -15.021  0.00  0.00    -0.368 N 
ATOM      4  C   UNL     1      37.108 -25.988 -14.336  0.00  0.00    +0.215 C 
ATOM      5  H   UNL     1      37.977 -25.600 -16.177  0.00  0.00    +0.197 HD
ATOM      6  H   UNL     1      35.355 -27.045 -14.524  0.00  0.00    +0.159 HD
ATOM      7  H   UNL     1      36.056 -26.569 -16.005  0.00  0.00    +0.159 HD
BRANCH   2   8
ATOM      8  O   UNL     1      38.946 -24.564 -14.668  0.00  0.00    -0.287 OA
ATOM      9  H   UNL     1      38.806 -24.498 -13.710  0.00  0.00    +0.244 HD
ENDBRANCH   2   8
ENDBRANCH   1   4
BRANCH   1  10
ATOM     10  C   UNL     1      36.231 -25.266 -12.271  0.00  0.00    +0.126 C 
BRANCH  10  11
ATOM     11  C   UNL     1      36.197 -23.784 -12.628  0.00  0.00    +0.003 C 
BRANCH  11  12
ATOM     12  C   UNL     1      37.145 -22.963 -11.765  0.00  0.00    -0.084 C 
BRANCH  12  13
ATOM     13  N   UNL     1      38.447 -23.668 -11.669  0.00  0.00    +0.380 N 
ATOM     14  H   UNL     1      39.064 -23.159 -11.038  0.00  0.00    -0.089 HD
ATOM     15  H   UNL     1      38.875 -23.720 -12.595  0.00  0.00    -0.089 HD
ATOM     16  H   UNL     1      38.298 -24.612 -11.311  0.00  0.00    -0.089 HD
ENDBRANCH  12  13
ENDBRANCH  11  12
ENDBRANCH  10  11
ENDBRANCH   1  10
TORSDOF 6
ENDMDL
