MODEL 1
REMARK VINA RESULT:      -6.4      0.000      0.000
REMARK  Name = 5288577
REMARK  11 active torsions:
REMARK  status: ('A' for Active; 'I' for Inactive)
REMARK    1  A    between atoms: C_1  and  O_2
REMARK    2  A    between atoms: C_1  and  C_4
REMARK    3  A    between atoms: C_1  and  C_11
REMARK    4  A    between atoms: C_4  and  O_5
REMARK    5  A    between atoms: C_4  and  C_7
REMARK    6  A    between atoms: C_7  and  C_8
REMARK    7  A    between atoms: C_8  and  O_9
REMARK    8  A    between atoms: C_11  and  O_12
REMARK    9  A    between atoms: O_12  and  P_13
REMARK   10  A    between atoms: P_13  and  O_15
REMARK   11  A    between atoms: P_13  and  O_17
REMARK                            x       y       z     vdW  Elec       q    Type
REMARK                         _______ _______ _______ _____ _____    ______ ____
ROOT
ATOM      1  C   UNL     1      36.665 -25.620 -14.384  0.00  0.00    +0.167 C 
ENDROOT
BRANCH   1   2
ATOM      2  O   UNL     1      35.753 -26.504 -15.036  0.00  0.00    -0.379 OA
ATOM      3  H   UNL     1      35.175 -26.917 -14.376  0.00  0.00    +0.211 HD
ENDBRANCH   1   2
BRANCH   1   4
ATOM      4  C   UNL     1      35.897 -24.646 -13.474  0.00  0.00    +0.142 C 
BRANCH   4   5
ATOM      5  O   UNL     1      35.626 -25.262 -12.216  0.00  0.00    -0.382 OA
ATOM      6  H   UNL     1      36.393 -25.789 -11.942  0.00  0.00    +0.210 HD
ENDBRANCH   4   5
BRANCH   4   7
ATOM      7  C   UNL     1      36.664 -23.332 -13.245  0.00  0.00    +0.064 C 
BRANCH   7   8
ATOM      8  C   UNL     1      37.061 -23.121 -11.786  0.00  0.00    +0.140 C 
BRANCH   8   9
ATOM      9  O   UNL     1      38.475 -23.070 -11.672  0.00  0.00    -0.382 OA
ATOM     10  H   UNL     1      38.783 -23.816 -11.133  0.00  0.00    +0.210 HD
ENDBRANCH   8   9
ENDBRANCH   7   8
ENDBRANCH   4   7
ENDBRANCH   1   4
BRANCH   1  11
ATOM     11  C   UNL     1      37.691 -26.453 -13.616  0.00  0.00    +0.185 C 
BRANCH  11  12
ATOM     12  O   UNL     1      38.750 -26.807 -14.500  0.00  0.00    -0.271 OA
BRANCH  12  13
ATOM     13  P   UNL     1      40.061 -25.866 -14.540  0.00  0.00    +0.473 P 
ATOM     14  O   UNL     1      39.957 -24.593 -13.750  0.00  0.00    -0.227 OA
BRANCH  13  15
ATOM     15  O   UNL     1      40.353 -25.678 -16.119  0.00  0.00    -0.303 OA
ATOM     16  H   UNL     1      39.848 -24.919 -16.453  0.00  0.00    +0.222 HD
ENDBRANCH  13  15
BRANCH  13  17
ATOM     17  O   UNL     1      41.235 -26.871 -14.062  0.00  0.00    -0.303 OA
ATOM     18  H   UNL     1      40.936 -27.788 -14.162  0.00  0.00    +0.222 HD
ENDBRANCH  13  17
ENDBRANCH  12  13
ENDBRANCH  11  12
ENDBRANCH   1  11
TORSDOF 11
ENDMDL
MODEL 2
REMARK VINA RESULT:      -6.4      1.556      2.006
REMARK  Name = 5288577
REMARK  11 active torsions:
REMARK  status: ('A' for Active; 'I' for Inactive)
REMARK    1  A    between atoms: C_1  and  O_2
REMARK    2  A    between atoms: C_1  and  C_4
REMARK    3  A    between atoms: C_1  and  C_11
REMARK    4  A    between atoms: C_4  and  O_5
REMARK    5  A    between atoms: C_4  and  C_7
REMARK    6  A    between atoms: C_7  and  C_8
REMARK    7  A    between atoms: C_8  and  O_9
REMARK    8  A    between atoms: C_11  and  O_12
REMARK    9  A    between atoms: O_12  and  P_13
REMARK   10  A    between atoms: P_13  and  O_15
REMARK   11  A    between atoms: P_13  and  O_17
REMARK                            x       y       z     vdW  Elec       q    Type
REMARK                         _______ _______ _______ _____ _____    ______ ____
ROOT
ATOM      1  C   UNL     1      36.810 -25.678 -14.915  0.00  0.00    +0.167 C 
ENDROOT
BRANCH   1   2
ATOM      2  O   UNL     1      35.678 -26.499 -15.208  0.00  0.00    -0.379 OA
ATOM      3  H   UNL     1      35.653 -27.246 -14.590  0.00  0.00    +0.211 HD
ENDBRANCH   1   2
BRANCH   1   4
ATOM      4  C   UNL     1      36.349 -24.267 -14.512  0.00  0.00    +0.142 C 
BRANCH   4   5
ATOM      5  O   UNL     1      37.277 -23.694 -13.591  0.00  0.00    -0.382 OA
ATOM      6  H   UNL     1      37.948 -24.354 -13.356  0.00  0.00    +0.210 HD
ENDBRANCH   4   5
BRANCH   4   7
ATOM      7  C   UNL     1      36.190 -23.335 -15.725  0.00  0.00    +0.064 C 
BRANCH   7   8
ATOM      8  C   UNL     1      37.397 -22.426 -15.940  0.00  0.00    +0.140 C 
BRANCH   8   9
ATOM      9  O   UNL     1      38.579 -23.206 -16.044  0.00  0.00    -0.382 OA
ATOM     10  H   UNL     1      39.272 -22.687 -16.481  0.00  0.00    +0.210 HD
ENDBRANCH   8   9
ENDBRANCH   7   8
ENDBRANCH   4   7
ENDBRANCH   1   4
BRANCH   1  11
ATOM     11  C   UNL     1      37.639 -26.358 -13.826  0.00  0.00    +0.185 C 
BRANCH  11  12
ATOM     12  O   UNL     1      38.828 -26.880 -14.411  0.00  0.00    -0.271 OA
BRANCH  12  13
ATOM     13  P   UNL     1      40.111 -25.907 -14.537  0.00  0.00    +0.473 P 
ATOM     14  O   UNL     1      39.998 -24.605 -13.797  0.00  0.00    -0.227 OA
BRANCH  13  15
ATOM     15  O   UNL     1      40.342 -25.777 -16.132  0.00  0.00    -0.303 OA
ATOM     16  H   UNL     1      39.879 -26.500 -16.585  0.00  0.00    +0.222 HD
ENDBRANCH  13  15
BRANCH  13  17
ATOM     17  O   UNL     1      41.328 -26.860 -14.061  0.00  0.00    -0.303 OA
ATOM     18  H   UNL     1      42.170 -26.485 -14.363  0.00  0.00    +0.222 HD
ENDBRANCH  13  17
ENDBRANCH  12  13
ENDBRANCH  11  12
ENDBRANCH   1  11
TORSDOF 11
ENDMDL
MODEL 3
REMARK VINA RESULT:      -6.4      2.848      4.552
REMARK  Name = 5288577
REMARK  11 active torsions:
REMARK  status: ('A' for Active; 'I' for Inactive)
REMARK    1  A    between atoms: C_1  and  O_2
REMARK    2  A    between atoms: C_1  and  C_4
REMARK    3  A    between atoms: C_1  and  C_11
REMARK    4  A    between atoms: C_4  and  O_5
REMARK    5  A    between atoms: C_4  and  C_7
REMARK    6  A    between atoms: C_7  and  C_8
REMARK    7  A    between atoms: C_8  and  O_9
REMARK    8  A    between atoms: C_11  and  O_12
REMARK    9  A    between atoms: O_12  and  P_13
REMARK   10  A    between atoms: P_13  and  O_15
REMARK   11  A    between atoms: P_13  and  O_17
REMARK                            x       y       z     vdW  Elec       q    Type
REMARK                         _______ _______ _______ _____ _____    ______ ____
ROOT
ATOM      1  C   UNL     1      37.807 -26.373 -13.556  0.00  0.00    +0.167 C 
ENDROOT
BRANCH   1   2
ATOM      2  O   UNL     1      36.687 -27.240 -13.371  0.00  0.00    -0.379 OA
ATOM      3  H   UNL     1      36.788 -28.023 -13.935  0.00  0.00    +0.211 HD
ENDBRANCH   1   2
BRANCH   1   4
ATOM      4  C   UNL     1      37.742 -25.714 -14.945  0.00  0.00    +0.142 C 
BRANCH   4   5
ATOM      5  O   UNL     1      37.105 -26.591 -15.873  0.00  0.00    -0.382 OA
ATOM      6  H   UNL     1      36.376 -27.054 -15.431  0.00  0.00    +0.210 HD
ENDBRANCH   4   5
BRANCH   4   7
ATOM      7  C   UNL     1      36.998 -24.368 -14.919  0.00  0.00    +0.064 C 
BRANCH   7   8
ATOM      8  C   UNL     1      35.534 -24.489 -15.333  0.00  0.00    +0.140 C 
BRANCH   8   9
ATOM      9  O   UNL     1      34.821 -25.258 -14.375  0.00  0.00    -0.382 OA
ATOM     10  H   UNL     1      33.881 -25.022 -14.405  0.00  0.00    +0.210 HD
ENDBRANCH   8   9
ENDBRANCH   7   8
ENDBRANCH   4   7
ENDBRANCH   1   4
BRANCH   1  11
ATOM     11  C   UNL     1      37.826 -25.349 -12.423  0.00  0.00    +0.185 C 
BRANCH  11  12
ATOM     12  O   UNL     1      36.571 -25.383 -11.750  0.00  0.00    -0.271 OA
BRANCH  12  13
ATOM     13  P   UNL     1      36.040 -24.028 -11.050  0.00  0.00    +0.473 P 
ATOM     14  O   UNL     1      37.074 -22.954 -10.874  0.00  0.00    -0.227 OA
BRANCH  13  15
ATOM     15  O   UNL     1      35.343 -24.546  -9.686  0.00  0.00    -0.303 OA
ATOM     16  H   UNL     1      34.415 -24.769  -9.862  0.00  0.00    +0.222 HD
ENDBRANCH  13  15
BRANCH  13  17
ATOM     17  O   UNL     1      34.780 -23.618 -11.978  0.00  0.00    -0.303 OA
ATOM     18  H   UNL     1      34.098 -23.200 -11.430  0.00  0.00    +0.222 HD
ENDBRANCH  13  17
ENDBRANCH  12  13
ENDBRANCH  11  12
ENDBRANCH   1  11
TORSDOF 11
ENDMDL
MODEL 4
REMARK VINA RESULT:      -6.3      1.435      3.090
REMARK  Name = 5288577
REMARK  11 active torsions:
REMARK  status: ('A' for Active; 'I' for Inactive)
REMARK    1  A    between atoms: C_1  and  O_2
REMARK    2  A    between atoms: C_1  and  C_4
REMARK    3  A    between atoms: C_1  and  C_11
REMARK    4  A    between atoms: C_4  and  O_5
REMARK    5  A    between atoms: C_4  and  C_7
REMARK    6  A    between atoms: C_7  and  C_8
REMARK    7  A    between atoms: C_8  and  O_9
REMARK    8  A    between atoms: C_11  and  O_12
REMARK    9  A    between atoms: O_12  and  P_13
REMARK   10  A    between atoms: P_13  and  O_15
REMARK   11  A    between atoms: P_13  and  O_17
REMARK                            x       y       z     vdW  Elec       q    Type
REMARK                         _______ _______ _______ _____ _____    ______ ____
ROOT
ATOM      1  C   UNL     1      37.599 -23.924 -12.015  0.00  0.00    +0.167 C 
ENDROOT
BRANCH   1   2
ATOM      2  O   UNL     1      38.624 -22.994 -11.662  0.00  0.00    -0.379 OA
ATOM      3  H   UNL     1      38.221 -22.145 -11.421  0.00  0.00    +0.211 HD
ENDBRANCH   1   2
BRANCH   1   4
ATOM      4  C   UNL     1      36.712 -23.337 -13.126  0.00  0.00    +0.142 C 
BRANCH   4   5
ATOM      5  O   UNL     1      37.517 -22.931 -14.232  0.00  0.00    -0.382 OA
ATOM      6  H   UNL     1      38.373 -22.609 -13.907  0.00  0.00    +0.210 HD
ENDBRANCH   4   5
BRANCH   4   7
ATOM      7  C   UNL     1      35.644 -24.332 -13.608  0.00  0.00    +0.064 C 
BRANCH   7   8
ATOM      8  C   UNL     1      35.458 -24.318 -15.124  0.00  0.00    +0.140 C 
BRANCH   8   9
ATOM      9  O   UNL     1      36.403 -25.183 -15.736  0.00  0.00    -0.382 OA
ATOM     10  H   UNL     1      36.401 -25.038 -16.695  0.00  0.00    +0.210 HD
ENDBRANCH   8   9
ENDBRANCH   7   8
ENDBRANCH   4   7
ENDBRANCH   1   4
BRANCH   1  11
ATOM     11  C   UNL     1      38.254 -25.242 -12.424  0.00  0.00    +0.185 C 
BRANCH  11  12
ATOM     12  O   UNL     1      39.425 -24.959 -13.184  0.00  0.00    -0.271 OA
BRANCH  12  13
ATOM     13  P   UNL     1      39.691 -25.812 -14.529  0.00  0.00    +0.473 P 
ATOM     14  O   UNL     1      41.021 -26.504 -14.592  0.00  0.00    -0.227 OA
BRANCH  13  15
ATOM     15  O   UNL     1      39.404 -24.755 -15.719  0.00  0.00    -0.303 OA
ATOM     16  H   UNL     1      38.463 -24.517 -15.720  0.00  0.00    +0.222 HD
ENDBRANCH  13  15
BRANCH  13  17
ATOM     17  O   UNL     1      38.406 -26.794 -14.587  0.00  0.00    -0.303 OA
ATOM     18  H   UNL     1      37.670 -26.392 -14.099  0.00  0.00    +0.222 HD
ENDBRANCH  13  17
ENDBRANCH  12  13
ENDBRANCH  11  12
ENDBRANCH   1  11
TORSDOF 11
ENDMDL
MODEL 5
REMARK VINA RESULT:      -6.3      1.593      2.355
REMARK  Name = 5288577
REMARK  11 active torsions:
REMARK  status: ('A' for Active; 'I' for Inactive)
REMARK    1  A    between atoms: C_1  and  O_2
REMARK    2  A    between atoms: C_1  and  C_4
REMARK    3  A    between atoms: C_1  and  C_11
REMARK    4  A    between atoms: C_4  and  O_5
REMARK    5  A    between atoms: C_4  and  C_7
REMARK    6  A    between atoms: C_7  and  C_8
REMARK    7  A    between atoms: C_8  and  O_9
REMARK    8  A    between atoms: C_11  and  O_12
REMARK    9  A    between atoms: O_12  and  P_13
REMARK   10  A    between atoms: P_13  and  O_15
REMARK   11  A    between atoms: P_13  and  O_17
REMARK                            x       y       z     vdW  Elec       q    Type
REMARK                         _______ _______ _______ _____ _____    ______ ____
ROOT
ATOM      1  C   UNL     1      36.803 -25.645 -15.040  0.00  0.00    +0.167 C 
ENDROOT
BRANCH   1   2
ATOM      2  O   UNL     1      35.738 -26.527 -15.396  0.00  0.00    -0.379 OA
ATOM      3  H   UNL     1      36.082 -27.238 -15.959  0.00  0.00    +0.211 HD
ENDBRANCH   1   2
BRANCH   1   4
ATOM      4  C   UNL     1      36.238 -24.279 -14.614  0.00  0.00    +0.142 C 
BRANCH   4   5
ATOM      5  O   UNL     1      37.047 -23.715 -13.582  0.00  0.00    -0.382 OA
ATOM      6  H   UNL     1      37.963 -23.642 -13.893  0.00  0.00    +0.210 HD
ENDBRANCH   4   5
BRANCH   4   7
ATOM      7  C   UNL     1      36.148 -23.291 -15.790  0.00  0.00    +0.064 C 
BRANCH   7   8
ATOM      8  C   UNL     1      37.371 -22.384 -15.901  0.00  0.00    +0.140 C 
BRANCH   8   9
ATOM      9  O   UNL     1      38.545 -23.170 -16.046  0.00  0.00    -0.382 OA
ATOM     10  H   UNL     1      39.228 -22.651 -16.501  0.00  0.00    +0.210 HD
ENDBRANCH   8   9
ENDBRANCH   7   8
ENDBRANCH   4   7
ENDBRANCH   1   4
BRANCH   1  11
ATOM     11  C   UNL     1      37.636 -26.302 -13.941  0.00  0.00    +0.185 C 
BRANCH  11  12
ATOM     12  O   UNL     1      38.783 -26.906 -14.532  0.00  0.00    -0.271 OA
BRANCH  12  13
ATOM     13  P   UNL     1      40.166 -26.073 -14.546  0.00  0.00    +0.473 P 
ATOM     14  O   UNL     1      41.353 -26.799 -13.983  0.00  0.00    -0.227 OA
BRANCH  13  15
ATOM     15  O   UNL     1      39.789 -24.686 -13.805  0.00  0.00    -0.303 OA
ATOM     16  H   UNL     1      40.375 -23.980 -14.122  0.00  0.00    +0.222 HD
ENDBRANCH  13  15
BRANCH  13  17
ATOM     17  O   UNL     1      40.304 -25.639 -16.098  0.00  0.00    -0.303 OA
ATOM     18  H   UNL     1      39.711 -26.183 -16.640  0.00  0.00    +0.222 HD
ENDBRANCH  13  17
ENDBRANCH  12  13
ENDBRANCH  11  12
ENDBRANCH   1  11
TORSDOF 11
ENDMDL
MODEL 6
REMARK VINA RESULT:      -6.1      1.560      2.116
REMARK  Name = 5288577
REMARK  11 active torsions:
REMARK  status: ('A' for Active; 'I' for Inactive)
REMARK    1  A    between atoms: C_1  and  O_2
REMARK    2  A    between atoms: C_1  and  C_4
REMARK    3  A    between atoms: C_1  and  C_11
REMARK    4  A    between atoms: C_4  and  O_5
REMARK    5  A    between atoms: C_4  and  C_7
REMARK    6  A    between atoms: C_7  and  C_8
REMARK    7  A    between atoms: C_8  and  O_9
REMARK    8  A    between atoms: C_11  and  O_12
REMARK    9  A    between atoms: O_12  and  P_13
REMARK   10  A    between atoms: P_13  and  O_15
REMARK   11  A    between atoms: P_13  and  O_17
REMARK                            x       y       z     vdW  Elec       q    Type
REMARK                         _______ _______ _______ _____ _____    ______ ____
ROOT
ATOM      1  C   UNL     1      36.311 -23.311 -14.108  0.00  0.00    +0.167 C 
ENDROOT
BRANCH   1   2
ATOM      2  O   UNL     1      35.233 -22.671 -14.792  0.00  0.00    -0.379 OA
ATOM      3  H   UNL     1      34.616 -23.342 -15.122  0.00  0.00    +0.211 HD
ENDBRANCH   1   2
BRANCH   1   4
ATOM      4  C   UNL     1      35.764 -24.338 -13.102  0.00  0.00    +0.142 C 
BRANCH   4   5
ATOM      5  O   UNL     1      36.047 -25.663 -13.552  0.00  0.00    -0.382 OA
ATOM      6  H   UNL     1      36.903 -25.949 -13.196  0.00  0.00    +0.210 HD
ENDBRANCH   4   5
BRANCH   4   7
ATOM      7  C   UNL     1      36.346 -24.142 -11.692  0.00  0.00    +0.064 C 
BRANCH   7   8
ATOM      8  C   UNL     1      37.218 -22.895 -11.576  0.00  0.00    +0.140 C 
BRANCH   8   9
ATOM      9  O   UNL     1      38.590 -23.257 -11.627  0.00  0.00    -0.382 OA
ATOM     10  H   UNL     1      38.675 -24.153 -11.991  0.00  0.00    +0.210 HD
ENDBRANCH   8   9
ENDBRANCH   7   8
ENDBRANCH   4   7
ENDBRANCH   1   4
BRANCH   1  11
ATOM     11  C   UNL     1      37.241 -23.943 -15.143  0.00  0.00    +0.185 C 
BRANCH  11  12
ATOM     12  O   UNL     1      38.556 -24.009 -14.601  0.00  0.00    -0.271 OA
BRANCH  12  13
ATOM     13  P   UNL     1      39.301 -25.442 -14.573  0.00  0.00    +0.473 P 
ATOM     14  O   UNL     1      40.747 -25.417 -14.976  0.00  0.00    -0.227 OA
BRANCH  13  15
ATOM     15  O   UNL     1      38.348 -26.390 -15.472  0.00  0.00    -0.303 OA
ATOM     16  H   UNL     1      38.248 -27.253 -15.037  0.00  0.00    +0.222 HD
ENDBRANCH  13  15
BRANCH  13  17
ATOM     17  O   UNL     1      39.022 -25.958 -13.065  0.00  0.00    -0.303 OA
ATOM     18  H   UNL     1      38.490 -25.299 -12.591  0.00  0.00    +0.222 HD
ENDBRANCH  13  17
ENDBRANCH  12  13
ENDBRANCH  11  12
ENDBRANCH   1  11
TORSDOF 11
ENDMDL
MODEL 7
REMARK VINA RESULT:      -6.1      2.290      4.433
REMARK  Name = 5288577
REMARK  11 active torsions:
REMARK  status: ('A' for Active; 'I' for Inactive)
REMARK    1  A    between atoms: C_1  and  O_2
REMARK    2  A    between atoms: C_1  and  C_4
REMARK    3  A    between atoms: C_1  and  C_11
REMARK    4  A    between atoms: C_4  and  O_5
REMARK    5  A    between atoms: C_4  and  C_7
REMARK    6  A    between atoms: C_7  and  C_8
REMARK    7  A    between atoms: C_8  and  O_9
REMARK    8  A    between atoms: C_11  and  O_12
REMARK    9  A    between atoms: O_12  and  P_13
REMARK   10  A    between atoms: P_13  and  O_15
REMARK   11  A    between atoms: P_13  and  O_17
REMARK                            x       y       z     vdW  Elec       q    Type
REMARK                         _______ _______ _______ _____ _____    ______ ____
ROOT
ATOM      1  C   UNL     1      37.324 -25.894 -14.398  0.00  0.00    +0.167 C 
ENDROOT
BRANCH   1   2
ATOM      2  O   UNL     1      36.863 -26.325 -15.679  0.00  0.00    -0.379 OA
ATOM      3  H   UNL     1      36.948 -25.598 -16.314  0.00  0.00    +0.211 HD
ENDBRANCH   1   2
BRANCH   1   4
ATOM      4  C   UNL     1      38.388 -24.796 -14.561  0.00  0.00    +0.142 C 
BRANCH   4   5
ATOM      5  O   UNL     1      37.892 -23.555 -14.060  0.00  0.00    -0.382 OA
ATOM      6  H   UNL     1      38.601 -22.893 -14.078  0.00  0.00    +0.210 HD
ENDBRANCH   4   5
BRANCH   4   7
ATOM      7  C   UNL     1      39.704 -25.146 -13.847  0.00  0.00    +0.064 C 
BRANCH   7   8
ATOM      8  C   UNL     1      40.527 -26.192 -14.594  0.00  0.00    +0.140 C 
BRANCH   8   9
ATOM      9  O   UNL     1      40.481 -25.939 -15.990  0.00  0.00    -0.382 OA
ATOM     10  H   UNL     1      41.383 -25.831 -16.330  0.00  0.00    +0.210 HD
ENDBRANCH   8   9
ENDBRANCH   7   8
ENDBRANCH   4   7
ENDBRANCH   1   4
BRANCH   1  11
ATOM     11  C   UNL     1      36.123 -25.429 -13.576  0.00  0.00    +0.185 C 
BRANCH  11  12
ATOM     12  O   UNL     1      36.462 -25.484 -12.194  0.00  0.00    -0.271 OA
BRANCH  12  13
ATOM     13  P   UNL     1      36.087 -24.220 -11.262  0.00  0.00    +0.473 P 
ATOM     14  O   UNL     1      35.395 -24.560  -9.973  0.00  0.00    -0.227 OA
BRANCH  13  15
ATOM     15  O   UNL     1      35.262 -23.242 -12.251  0.00  0.00    -0.303 OA
ATOM     16  H   UNL     1      35.644 -23.288 -13.143  0.00  0.00    +0.222 HD
ENDBRANCH  13  15
BRANCH  13  17
ATOM     17  O   UNL     1      37.509 -23.467 -11.095  0.00  0.00    -0.303 OA
ATOM     18  H   UNL     1      38.183 -23.931 -11.615  0.00  0.00    +0.222 HD
ENDBRANCH  13  17
ENDBRANCH  12  13
ENDBRANCH  11  12
ENDBRANCH   1  11
TORSDOF 11
ENDMDL
MODEL 8
REMARK VINA RESULT:      -6.1      2.911      4.246
REMARK  Name = 5288577
REMARK  11 active torsions:
REMARK  status: ('A' for Active; 'I' for Inactive)
REMARK    1  A    between atoms: C_1  and  O_2
REMARK    2  A    between atoms: C_1  and  C_4
REMARK    3  A    between atoms: C_1  and  C_11
REMARK    4  A    between atoms: C_4  and  O_5
REMARK    5  A    between atoms: C_4  and  C_7
REMARK    6  A    between atoms: C_7  and  C_8
REMARK    7  A    between atoms: C_8  and  O_9
REMARK    8  A    between atoms: C_11  and  O_12
REMARK    9  A    between atoms: O_12  and  P_13
REMARK   10  A    between atoms: P_13  and  O_15
REMARK   11  A    between atoms: P_13  and  O_17
REMARK                            x       y       z     vdW  Elec       q    Type
REMARK                         _______ _______ _______ _____ _____    ______ ____
ROOT
ATOM      1  C   UNL     1      37.569 -26.112 -13.874  0.00  0.00    +0.167 C 
ENDROOT
BRANCH   1   2
ATOM      2  O   UNL     1      36.933 -27.352 -13.561  0.00  0.00    -0.379 OA
ATOM      3  H   UNL     1      36.074 -27.397 -14.009  0.00  0.00    +0.211 HD
ENDBRANCH   1   2
BRANCH   1   4
ATOM      4  C   UNL     1      36.721 -25.323 -14.886  0.00  0.00    +0.142 C 
BRANCH   4   5
ATOM      5  O   UNL     1      35.336 -25.445 -14.564  0.00  0.00    -0.382 OA
ATOM      6  H   UNL     1      35.151 -26.351 -14.271  0.00  0.00    +0.210 HD
ENDBRANCH   4   5
BRANCH   4   7
ATOM      7  C   UNL     1      37.106 -23.835 -14.936  0.00  0.00    +0.064 C 
BRANCH   7   8
ATOM      8  C   UNL     1      36.065 -22.975 -15.648  0.00  0.00    +0.140 C 
BRANCH   8   9
ATOM      9  O   UNL     1      35.062 -22.568 -14.729  0.00  0.00    -0.382 OA
ATOM     10  H   UNL     1      35.071 -21.601 -14.646  0.00  0.00    +0.210 HD
ENDBRANCH   8   9
ENDBRANCH   7   8
ENDBRANCH   4   7
ENDBRANCH   1   4
BRANCH   1  11
ATOM     11  C   UNL     1      37.801 -25.340 -12.576  0.00  0.00    +0.185 C 
BRANCH  11  12
ATOM     12  O   UNL     1      36.674 -25.523 -11.724  0.00  0.00    -0.271 OA
BRANCH  12  13
ATOM     13  P   UNL     1      35.881 -24.213 -11.210  0.00  0.00    +0.473 P 
ATOM     14  O   UNL     1      34.782 -23.738 -12.116  0.00  0.00    -0.227 OA
BRANCH  13  15
ATOM     15  O   UNL     1      37.055 -23.138 -10.925  0.00  0.00    -0.303 OA
ATOM     16  H   UNL     1      37.628 -23.466 -10.213  0.00  0.00    +0.222 HD
ENDBRANCH  13  15
BRANCH  13  17
ATOM     17  O   UNL     1      35.404 -24.645  -9.726  0.00  0.00    -0.303 OA
ATOM     18  H   UNL     1      34.494 -24.345  -9.579  0.00  0.00    +0.222 HD
ENDBRANCH  13  17
ENDBRANCH  12  13
ENDBRANCH  11  12
ENDBRANCH   1  11
TORSDOF 11
ENDMDL
MODEL 9
REMARK VINA RESULT:      -5.9      1.656      2.360
REMARK  Name = 5288577
REMARK  11 active torsions:
REMARK  status: ('A' for Active; 'I' for Inactive)
REMARK    1  A    between atoms: C_1  and  O_2
REMARK    2  A    between atoms: C_1  and  C_4
REMARK    3  A    between atoms: C_1  and  C_11
REMARK    4  A    between atoms: C_4  and  O_5
REMARK    5  A    between atoms: C_4  and  C_7
REMARK    6  A    between atoms: C_7  and  C_8
REMARK    7  A    between atoms: C_8  and  O_9
REMARK    8  A    between atoms: C_11  and  O_12
REMARK    9  A    between atoms: O_12  and  P_13
REMARK   10  A    between atoms: P_13  and  O_15
REMARK   11  A    between atoms: P_13  and  O_17
REMARK                            x       y       z     vdW  Elec       q    Type
REMARK                         _______ _______ _______ _____ _____    ______ ____
ROOT
ATOM      1  C   UNL     1      36.820 -25.813 -15.075  0.00  0.00    +0.167 C 
ENDROOT
BRANCH   1   2
ATOM      2  O   UNL     1      35.846 -26.846 -15.236  0.00  0.00    -0.379 OA
ATOM      3  H   UNL     1      35.050 -26.620 -14.730  0.00  0.00    +0.211 HD
ENDBRANCH   1   2
BRANCH   1   4
ATOM      4  C   UNL     1      36.123 -24.451 -14.907  0.00  0.00    +0.142 C 
BRANCH   4   5
ATOM      5  O   UNL     1      35.354 -24.149 -16.070  0.00  0.00    -0.382 OA
ATOM      6  H   UNL     1      34.617 -23.566 -15.827  0.00  0.00    +0.210 HD
ENDBRANCH   4   5
BRANCH   4   7
ATOM      7  C   UNL     1      35.215 -24.409 -13.667  0.00  0.00    +0.064 C 
BRANCH   7   8
ATOM      8  C   UNL     1      33.735 -24.275 -14.018  0.00  0.00    +0.140 C 
BRANCH   8   9
ATOM      9  O   UNL     1      33.400 -22.907 -14.193  0.00  0.00    -0.382 OA
ATOM     10  H   UNL     1      33.164 -22.747 -15.121  0.00  0.00    +0.210 HD
ENDBRANCH   8   9
ENDBRANCH   7   8
ENDBRANCH   4   7
ENDBRANCH   1   4
BRANCH   1  11
ATOM     11  C   UNL     1      37.714 -26.164 -13.887  0.00  0.00    +0.185 C 
BRANCH  11  12
ATOM     12  O   UNL     1      38.884 -26.816 -14.368  0.00  0.00    -0.271 OA
BRANCH  12  13
ATOM     13  P   UNL     1      40.229 -25.940 -14.553  0.00  0.00    +0.473 P 
ATOM     14  O   UNL     1      40.203 -24.588 -13.899  0.00  0.00    -0.227 OA
BRANCH  13  15
ATOM     15  O   UNL     1      40.467 -25.930 -16.152  0.00  0.00    -0.303 OA
ATOM     16  H   UNL     1      39.990 -25.181 -16.545  0.00  0.00    +0.222 HD
ENDBRANCH  13  15
BRANCH  13  17
ATOM     17  O   UNL     1      41.381 -26.938 -14.011  0.00  0.00    -0.303 OA
ATOM     18  H   UNL     1      41.339 -26.985 -13.043  0.00  0.00    +0.222 HD
ENDBRANCH  13  17
ENDBRANCH  12  13
ENDBRANCH  11  12
ENDBRANCH   1  11
TORSDOF 11
ENDMDL
