MODEL 1
REMARK VINA RESULT:      -5.3      0.000      0.000
REMARK  Name = 473
REMARK  5 active torsions:
REMARK  status: ('A' for Active; 'I' for Inactive)
REMARK    1  A    between atoms: C_2  and  C_4
REMARK    2  A    between atoms: C_2  and  C_7
REMARK    3  A    between atoms: C_4  and  O_5
REMARK    4  A    between atoms: C_7  and  C_8
REMARK    5  A    between atoms: C_8  and  S_9
REMARK                            x       y       z     vdW  Elec       q    Type
REMARK                         _______ _______ _______ _____ _____    ______ ____
ROOT
ATOM      1  O   UNL     1      38.493 -26.941 -14.759  0.00  0.00    -0.284 OA
ATOM      2  C   UNL     1      39.004 -25.961 -14.238  0.00  0.00    +0.249 C 
ENDROOT
BRANCH   2   4
ATOM      3  O   UNL     1      40.961 -24.608 -14.305  0.00  0.00    -0.242 OA
ATOM      4  C   UNL     1      40.262 -25.429 -14.863  0.00  0.00    +0.373 C 
BRANCH   4   5
ATOM      5  O   UNL     1      40.422 -25.949 -16.087  0.00  0.00    -0.475 OA
ATOM      6  H   UNL     1      40.436 -26.879 -16.201  0.00  0.00    +0.295 HD
ENDBRANCH   4   5
ENDBRANCH   2   4
BRANCH   2   7
ATOM      7  C   UNL     1      38.499 -25.241 -13.007  0.00  0.00    +0.088 C 
BRANCH   7   8
ATOM      8  C   UNL     1      37.195 -25.812 -12.459  0.00  0.00    +0.066 C 
BRANCH   8   9
ATOM      9  S   UNL     1      35.952 -24.516 -12.166  0.00  0.00    -0.139 S 
ATOM     10  C   UNL     1      37.076 -23.181 -11.700  0.00  0.00    +0.069 C 
ENDBRANCH   8   9
ENDBRANCH   7   8
ENDBRANCH   2   7
TORSDOF 5
ENDMDL
MODEL 2
REMARK VINA RESULT:      -5.2     10.850     11.872
REMARK  Name = 473
REMARK  5 active torsions:
REMARK  status: ('A' for Active; 'I' for Inactive)
REMARK    1  A    between atoms: C_2  and  C_4
REMARK    2  A    between atoms: C_2  and  C_7
REMARK    3  A    between atoms: C_4  and  O_5
REMARK    4  A    between atoms: C_7  and  C_8
REMARK    5  A    between atoms: C_8  and  S_9
REMARK                            x       y       z     vdW  Elec       q    Type
REMARK                         _______ _______ _______ _____ _____    ______ ____
ROOT
ATOM      1  O   UNL     1      27.753 -23.267 -18.065  0.00  0.00    -0.284 OA
ATOM      2  C   UNL     1      27.572 -22.575 -17.074  0.00  0.00    +0.249 C 
ENDROOT
BRANCH   2   4
ATOM      3  O   UNL     1      26.373 -20.703 -17.924  0.00  0.00    -0.242 OA
ATOM      4  C   UNL     1      26.427 -21.605 -17.113  0.00  0.00    +0.373 C 
BRANCH   4   5
ATOM      5  O   UNL     1      25.569 -21.867 -16.118  0.00  0.00    -0.475 OA
ATOM      6  H   UNL     1      25.875 -22.280 -15.334  0.00  0.00    +0.295 HD
ENDBRANCH   4   5
ENDBRANCH   2   4
BRANCH   2   7
ATOM      7  C   UNL     1      28.409 -22.589 -15.813  0.00  0.00    +0.088 C 
BRANCH   7   8
ATOM      8  C   UNL     1      28.916 -23.977 -15.434  0.00  0.00    +0.066 C 
BRANCH   8   9
ATOM      9  S   UNL     1      30.678 -23.960 -14.981  0.00  0.00    -0.139 S 
ATOM     10  C   UNL     1      31.298 -23.016 -16.392  0.00  0.00    +0.069 C 
ENDBRANCH   8   9
ENDBRANCH   7   8
ENDBRANCH   2   7
TORSDOF 5
ENDMDL
MODEL 3
REMARK VINA RESULT:      -5.1      1.711      1.857
REMARK  Name = 473
REMARK  5 active torsions:
REMARK  status: ('A' for Active; 'I' for Inactive)
REMARK    1  A    between atoms: C_2  and  C_4
REMARK    2  A    between atoms: C_2  and  C_7
REMARK    3  A    between atoms: C_4  and  O_5
REMARK    4  A    between atoms: C_7  and  C_8
REMARK    5  A    between atoms: C_8  and  S_9
REMARK                            x       y       z     vdW  Elec       q    Type
REMARK                         _______ _______ _______ _____ _____    ______ ____
ROOT
ATOM      1  O   UNL     1      38.480 -27.054 -14.734  0.00  0.00    -0.284 OA
ATOM      2  C   UNL     1      38.933 -26.036 -14.233  0.00  0.00    +0.249 C 
ENDROOT
BRANCH   2   4
ATOM      3  O   UNL     1      40.903 -24.700 -14.226  0.00  0.00    -0.242 OA
ATOM      4  C   UNL     1      40.194 -25.479 -14.829  0.00  0.00    +0.373 C 
BRANCH   4   5
ATOM      5  O   UNL     1      40.344 -25.926 -16.083  0.00  0.00    -0.475 OA
ATOM      6  H   UNL     1      40.851 -26.697 -16.247  0.00  0.00    +0.295 HD
ENDBRANCH   4   5
ENDBRANCH   2   4
BRANCH   2   7
ATOM      7  C   UNL     1      38.352 -25.290 -13.051  0.00  0.00    +0.088 C 
BRANCH   7   8
ATOM      8  C   UNL     1      37.619 -24.009 -13.439  0.00  0.00    +0.066 C 
BRANCH   8   9
ATOM      9  S   UNL     1      36.697 -24.197 -14.996  0.00  0.00    -0.139 S 
ATOM     10  C   UNL     1      37.433 -22.817 -15.900  0.00  0.00    +0.069 C 
ENDBRANCH   8   9
ENDBRANCH   7   8
ENDBRANCH   2   7
TORSDOF 5
ENDMDL
MODEL 4
REMARK VINA RESULT:      -5.0      3.658      4.953
REMARK  Name = 473
REMARK  5 active torsions:
REMARK  status: ('A' for Active; 'I' for Inactive)
REMARK    1  A    between atoms: C_2  and  C_4
REMARK    2  A    between atoms: C_2  and  C_7
REMARK    3  A    between atoms: C_4  and  O_5
REMARK    4  A    between atoms: C_7  and  C_8
REMARK    5  A    between atoms: C_8  and  S_9
REMARK                            x       y       z     vdW  Elec       q    Type
REMARK                         _______ _______ _______ _____ _____    ______ ____
ROOT
ATOM      1  O   UNL     1      37.553 -22.710 -11.257  0.00  0.00    -0.284 OA
ATOM      2  C   UNL     1      36.707 -23.404 -11.801  0.00  0.00    +0.249 C 
ENDROOT
BRANCH   2   4
ATOM      3  O   UNL     1      35.974 -24.269  -9.707  0.00  0.00    -0.242 OA
ATOM      4  C   UNL     1      35.843 -24.255 -10.914  0.00  0.00    +0.373 C 
BRANCH   4   5
ATOM      5  O   UNL     1      35.004 -24.988 -11.658  0.00  0.00    -0.475 OA
ATOM      6  H   UNL     1      34.308 -24.570 -12.126  0.00  0.00    +0.295 HD
ENDBRANCH   4   5
ENDBRANCH   2   4
BRANCH   2   7
ATOM      7  C   UNL     1      36.458 -23.503 -13.290  0.00  0.00    +0.088 C 
BRANCH   7   8
ATOM      8  C   UNL     1      37.675 -23.973 -14.081  0.00  0.00    +0.066 C 
BRANCH   8   9
ATOM      9  S   UNL     1      38.420 -25.470 -13.362  0.00  0.00    -0.139 S 
ATOM     10  C   UNL     1      37.234 -26.677 -13.995  0.00  0.00    +0.069 C 
ENDBRANCH   8   9
ENDBRANCH   7   8
ENDBRANCH   2   7
TORSDOF 5
ENDMDL
MODEL 5
REMARK VINA RESULT:      -5.0      1.974      2.074
REMARK  Name = 473
REMARK  5 active torsions:
REMARK  status: ('A' for Active; 'I' for Inactive)
REMARK    1  A    between atoms: C_2  and  C_4
REMARK    2  A    between atoms: C_2  and  C_7
REMARK    3  A    between atoms: C_4  and  O_5
REMARK    4  A    between atoms: C_7  and  C_8
REMARK    5  A    between atoms: C_8  and  S_9
REMARK                            x       y       z     vdW  Elec       q    Type
REMARK                         _______ _______ _______ _____ _____    ______ ____
ROOT
ATOM      1  O   UNL     1      39.126 -24.056 -14.975  0.00  0.00    -0.284 OA
ATOM      2  C   UNL     1      39.237 -25.105 -14.359  0.00  0.00    +0.249 C 
ENDROOT
BRANCH   2   4
ATOM      3  O   UNL     1      41.042 -26.591 -13.911  0.00  0.00    -0.242 OA
ATOM      4  C   UNL     1      40.375 -26.009 -14.741  0.00  0.00    +0.373 C 
BRANCH   4   5
ATOM      5  O   UNL     1      40.539 -26.002 -16.071  0.00  0.00    -0.475 OA
ATOM      6  H   UNL     1      39.915 -26.433 -16.621  0.00  0.00    +0.295 HD
ENDBRANCH   4   5
ENDBRANCH   2   4
BRANCH   2   7
ATOM      7  C   UNL     1      38.322 -25.593 -13.257  0.00  0.00    +0.088 C 
BRANCH   7   8
ATOM      8  C   UNL     1      37.319 -26.645 -13.720  0.00  0.00    +0.066 C 
BRANCH   8   9
ATOM      9  S   UNL     1      36.286 -26.046 -15.094  0.00  0.00    -0.139 S 
ATOM     10  C   UNL     1      35.503 -24.659 -14.241  0.00  0.00    +0.069 C 
ENDBRANCH   8   9
ENDBRANCH   7   8
ENDBRANCH   2   7
TORSDOF 5
ENDMDL
MODEL 6
REMARK VINA RESULT:      -4.8      9.528     10.581
REMARK  Name = 473
REMARK  5 active torsions:
REMARK  status: ('A' for Active; 'I' for Inactive)
REMARK    1  A    between atoms: C_2  and  C_4
REMARK    2  A    between atoms: C_2  and  C_7
REMARK    3  A    between atoms: C_4  and  O_5
REMARK    4  A    between atoms: C_7  and  C_8
REMARK    5  A    between atoms: C_8  and  S_9
REMARK                            x       y       z     vdW  Elec       q    Type
REMARK                         _______ _______ _______ _____ _____    ______ ____
ROOT
ATOM      1  O   UNL     1      28.520 -21.797 -15.108  0.00  0.00    -0.284 OA
ATOM      2  C   UNL     1      28.465 -22.804 -15.799  0.00  0.00    +0.249 C 
ENDROOT
BRANCH   2   4
ATOM      3  O   UNL     1      27.576 -23.663 -17.833  0.00  0.00    -0.242 OA
ATOM      4  C   UNL     1      27.686 -22.718 -17.080  0.00  0.00    +0.373 C 
BRANCH   4   5
ATOM      5  O   UNL     1      27.219 -21.473 -17.249  0.00  0.00    -0.475 OA
ATOM      6  H   UNL     1      27.803 -20.743 -17.188  0.00  0.00    +0.295 HD
ENDBRANCH   4   5
ENDBRANCH   2   4
BRANCH   2   7
ATOM      7  C   UNL     1      29.094 -24.142 -15.474  0.00  0.00    +0.088 C 
BRANCH   7   8
ATOM      8  C   UNL     1      30.611 -24.081 -15.322  0.00  0.00    +0.066 C 
BRANCH   8   9
ATOM      9  S   UNL     1      31.180 -24.927 -13.815  0.00  0.00    -0.139 S 
ATOM     10  C   UNL     1      32.904 -24.388 -13.852  0.00  0.00    +0.069 C 
ENDBRANCH   8   9
ENDBRANCH   7   8
ENDBRANCH   2   7
TORSDOF 5
ENDMDL
MODEL 7
REMARK VINA RESULT:      -4.7      3.403      4.314
REMARK  Name = 473
REMARK  5 active torsions:
REMARK  status: ('A' for Active; 'I' for Inactive)
REMARK    1  A    between atoms: C_2  and  C_4
REMARK    2  A    between atoms: C_2  and  C_7
REMARK    3  A    between atoms: C_4  and  O_5
REMARK    4  A    between atoms: C_7  and  C_8
REMARK    5  A    between atoms: C_8  and  S_9
REMARK                            x       y       z     vdW  Elec       q    Type
REMARK                         _______ _______ _______ _____ _____    ______ ____
ROOT
ATOM      1  O   UNL     1      36.581 -25.831 -11.783  0.00  0.00    -0.284 OA
ATOM      2  C   UNL     1      37.238 -24.819 -11.974  0.00  0.00    +0.249 C 
ENDROOT
BRANCH   2   4
ATOM      3  O   UNL     1      37.192 -22.488 -11.492  0.00  0.00    -0.242 OA
ATOM      4  C   UNL     1      36.899 -23.613 -11.144  0.00  0.00    +0.373 C 
BRANCH   4   5
ATOM      5  O   UNL     1      36.308 -23.994 -10.003  0.00  0.00    -0.475 OA
ATOM      6  H   UNL     1      36.569 -24.790  -9.585  0.00  0.00    +0.295 HD
ENDBRANCH   4   5
ENDBRANCH   2   4
BRANCH   2   7
ATOM      7  C   UNL     1      38.351 -24.656 -12.986  0.00  0.00    +0.088 C 
BRANCH   7   8
ATOM      8  C   UNL     1      37.952 -25.063 -14.401  0.00  0.00    +0.066 C 
BRANCH   8   9
ATOM      9  S   UNL     1      36.552 -24.081 -15.024  0.00  0.00    -0.139 S 
ATOM     10  C   UNL     1      37.496 -22.769 -15.830  0.00  0.00    +0.069 C 
ENDBRANCH   8   9
ENDBRANCH   7   8
ENDBRANCH   2   7
TORSDOF 5
ENDMDL
MODEL 8
REMARK VINA RESULT:      -4.6      9.601      9.931
REMARK  Name = 473
REMARK  5 active torsions:
REMARK  status: ('A' for Active; 'I' for Inactive)
REMARK    1  A    between atoms: C_2  and  C_4
REMARK    2  A    between atoms: C_2  and  C_7
REMARK    3  A    between atoms: C_4  and  O_5
REMARK    4  A    between atoms: C_7  and  C_8
REMARK    5  A    between atoms: C_8  and  S_9
REMARK                            x       y       z     vdW  Elec       q    Type
REMARK                         _______ _______ _______ _____ _____    ______ ____
ROOT
ATOM      1  O   UNL     1      32.669 -20.991 -19.473  0.00  0.00    -0.284 OA
ATOM      2  C   UNL     1      33.858 -21.198 -19.666  0.00  0.00    +0.249 C 
ENDROOT
BRANCH   2   4
ATOM      3  O   UNL     1      35.389 -22.337 -18.243  0.00  0.00    -0.242 OA
ATOM      4  C   UNL     1      34.457 -22.413 -19.018  0.00  0.00    +0.373 C 
BRANCH   4   5
ATOM      5  O   UNL     1      33.853 -23.519 -19.471  0.00  0.00    -0.475 OA
ATOM      6  H   UNL     1      34.322 -24.330 -19.501  0.00  0.00    +0.295 HD
ENDBRANCH   4   5
ENDBRANCH   2   4
BRANCH   2   7
ATOM      7  C   UNL     1      34.792 -20.332 -20.484  0.00  0.00    +0.088 C 
BRANCH   7   8
ATOM      8  C   UNL     1      34.070 -19.415 -21.466  0.00  0.00    +0.066 C 
BRANCH   8   9
ATOM      9  S   UNL     1      35.230 -18.394 -22.426  0.00  0.00    -0.139 S 
ATOM     10  C   UNL     1      34.767 -18.962 -24.077  0.00  0.00    +0.069 C 
ENDBRANCH   8   9
ENDBRANCH   7   8
ENDBRANCH   2   7
TORSDOF 5
ENDMDL
MODEL 9
REMARK VINA RESULT:      -4.6     12.354     12.714
REMARK  Name = 473
REMARK  5 active torsions:
REMARK  status: ('A' for Active; 'I' for Inactive)
REMARK    1  A    between atoms: C_2  and  C_4
REMARK    2  A    between atoms: C_2  and  C_7
REMARK    3  A    between atoms: C_4  and  O_5
REMARK    4  A    between atoms: C_7  and  C_8
REMARK    5  A    between atoms: C_8  and  S_9
REMARK                            x       y       z     vdW  Elec       q    Type
REMARK                         _______ _______ _______ _____ _____    ______ ____
ROOT
ATOM      1  O   UNL     1      34.000 -18.975 -24.985  0.00  0.00    -0.284 OA
ATOM      2  C   UNL     1      34.667 -18.253 -24.259  0.00  0.00    +0.249 C 
ENDROOT
BRANCH   2   4
ATOM      3  O   UNL     1      34.612 -16.482 -25.849  0.00  0.00    -0.242 OA
ATOM      4  C   UNL     1      34.948 -16.860 -24.746  0.00  0.00    +0.373 C 
BRANCH   4   5
ATOM      5  O   UNL     1      35.642 -16.183 -23.821  0.00  0.00    -0.475 OA
ATOM      6  H   UNL     1      35.682 -15.248 -23.859  0.00  0.00    +0.295 HD
ENDBRANCH   4   5
ENDBRANCH   2   4
BRANCH   2   7
ATOM      7  C   UNL     1      35.258 -18.638 -22.920  0.00  0.00    +0.088 C 
BRANCH   7   8
ATOM      8  C   UNL     1      34.239 -19.236 -21.955  0.00  0.00    +0.066 C 
BRANCH   8   9
ATOM      9  S   UNL     1      35.035 -20.215 -20.644  0.00  0.00    -0.139 S 
ATOM     10  C   UNL     1      33.547 -20.952 -19.932  0.00  0.00    +0.069 C 
ENDBRANCH   8   9
ENDBRANCH   7   8
ENDBRANCH   2   7
TORSDOF 5
ENDMDL
