MODEL 1
REMARK VINA RESULT:      -7.0      0.000      0.000
REMARK  Name = 107
REMARK  4 active torsions:
REMARK  status: ('A' for Active; 'I' for Inactive)
REMARK    1  A    between atoms: C_1  and  C_2
REMARK    2  A    between atoms: C_1  and  C_8
REMARK    3  A    between atoms: C_8  and  C_10
REMARK    4  A    between atoms: C_10  and  O_11
REMARK                            x       y       z     vdW  Elec       q    Type
REMARK                         _______ _______ _______ _____ _____    ______ ____
ROOT
ATOM      1  C   UNL     1      35.417 -18.453 -22.224  0.00  0.00    +0.038 C 
ENDROOT
BRANCH   1   2
ATOM      2  C   UNL     1      34.838 -19.455 -21.284  0.00  0.00    -0.022 C 
ATOM      3  C   UNL     1      33.455 -19.530 -21.110  0.00  0.00    -0.004 C 
ATOM      4  C   UNL     1      35.676 -20.317 -20.578  0.00  0.00    -0.004 C 
ATOM      5  C   UNL     1      32.912 -20.467 -20.231  0.00  0.00    -0.000 C 
ATOM      6  C   UNL     1      35.134 -21.254 -19.698  0.00  0.00    -0.000 C 
ATOM      7  C   UNL     1      33.752 -21.329 -19.525  0.00  0.00    -0.000 C 
ENDBRANCH   1   2
BRANCH   1   8
ATOM      8  C   UNL     1      34.986 -18.653 -23.681  0.00  0.00    +0.114 C 
BRANCH   8  10
ATOM      9  O   UNL     1      34.500 -17.215 -25.561  0.00  0.00    -0.250 OA
ATOM     10  C   UNL     1      34.998 -17.354 -24.450  0.00  0.00    +0.314 C 
BRANCH  10  11
ATOM     11  O   UNL     1      35.645 -16.359 -23.796  0.00  0.00    -0.480 OA
ATOM     12  H   UNL     1      36.267 -16.566 -23.127  0.00  0.00    +0.295 HD
ENDBRANCH  10  11
ENDBRANCH   8  10
ENDBRANCH   1   8
TORSDOF 4
ENDMDL
MODEL 2
REMARK VINA RESULT:      -6.9      1.119      2.105
REMARK  Name = 107
REMARK  4 active torsions:
REMARK  status: ('A' for Active; 'I' for Inactive)
REMARK    1  A    between atoms: C_1  and  C_2
REMARK    2  A    between atoms: C_1  and  C_8
REMARK    3  A    between atoms: C_8  and  C_10
REMARK    4  A    between atoms: C_10  and  O_11
REMARK                            x       y       z     vdW  Elec       q    Type
REMARK                         _______ _______ _______ _____ _____    ______ ____
ROOT
ATOM      1  C   UNL     1      36.145 -18.826 -21.408  0.00  0.00    +0.038 C 
ENDROOT
BRANCH   1   2
ATOM      2  C   UNL     1      35.251 -19.800 -20.720  0.00  0.00    -0.022 C 
ATOM      3  C   UNL     1      35.799 -20.854 -19.988  0.00  0.00    -0.004 C 
ATOM      4  C   UNL     1      33.866 -19.659 -20.807  0.00  0.00    -0.004 C 
ATOM      5  C   UNL     1      34.962 -21.766 -19.344  0.00  0.00    -0.000 C 
ATOM      6  C   UNL     1      33.029 -20.570 -20.164  0.00  0.00    -0.000 C 
ATOM      7  C   UNL     1      33.577 -21.623 -19.432  0.00  0.00    -0.000 C 
ENDBRANCH   1   2
BRANCH   1   8
ATOM      8  C   UNL     1      35.549 -18.241 -22.693  0.00  0.00    +0.114 C 
BRANCH   8  10
ATOM      9  O   UNL     1      34.849 -16.221 -21.568  0.00  0.00    -0.250 OA
ATOM     10  C   UNL     1      35.307 -16.756 -22.570  0.00  0.00    +0.314 C 
BRANCH  10  11
ATOM     11  O   UNL     1      35.623 -16.074 -23.699  0.00  0.00    -0.480 OA
ATOM     12  H   UNL     1      35.364 -15.179 -23.793  0.00  0.00    +0.295 HD
ENDBRANCH  10  11
ENDBRANCH   8  10
ENDBRANCH   1   8
TORSDOF 4
ENDMDL
MODEL 3
REMARK VINA RESULT:      -6.7      1.189      1.483
REMARK  Name = 107
REMARK  4 active torsions:
REMARK  status: ('A' for Active; 'I' for Inactive)
REMARK    1  A    between atoms: C_1  and  C_2
REMARK    2  A    between atoms: C_1  and  C_8
REMARK    3  A    between atoms: C_8  and  C_10
REMARK    4  A    between atoms: C_10  and  O_11
REMARK                            x       y       z     vdW  Elec       q    Type
REMARK                         _______ _______ _______ _____ _____    ______ ____
ROOT
ATOM      1  C   UNL     1      35.470 -18.354 -21.793  0.00  0.00    +0.038 C 
ENDROOT
BRANCH   1   2
ATOM      2  C   UNL     1      34.848 -19.454 -21.003  0.00  0.00    -0.022 C 
ATOM      3  C   UNL     1      33.460 -19.529 -20.884  0.00  0.00    -0.004 C 
ATOM      4  C   UNL     1      35.652 -20.410 -20.383  0.00  0.00    -0.004 C 
ATOM      5  C   UNL     1      32.876 -20.558 -20.145  0.00  0.00    -0.000 C 
ATOM      6  C   UNL     1      35.070 -21.439 -19.643  0.00  0.00    -0.000 C 
ATOM      7  C   UNL     1      33.682 -21.513 -19.525  0.00  0.00    -0.000 C 
ENDBRANCH   1   2
BRANCH   1   8
ATOM      8  C   UNL     1      34.928 -16.962 -21.447  0.00  0.00    +0.114 C 
BRANCH   8  10
ATOM      9  O   UNL     1      33.751 -15.406 -22.873  0.00  0.00    -0.250 OA
ATOM     10  C   UNL     1      34.731 -16.117 -22.683  0.00  0.00    +0.314 C 
BRANCH  10  11
ATOM     11  O   UNL     1      35.740 -16.248 -23.579  0.00  0.00    -0.480 OA
ATOM     12  H   UNL     1      36.091 -15.490 -24.002  0.00  0.00    +0.295 HD
ENDBRANCH  10  11
ENDBRANCH   8  10
ENDBRANCH   1   8
TORSDOF 4
ENDMDL
MODEL 4
REMARK VINA RESULT:      -6.5      3.698      5.290
REMARK  Name = 107
REMARK  4 active torsions:
REMARK  status: ('A' for Active; 'I' for Inactive)
REMARK    1  A    between atoms: C_1  and  C_2
REMARK    2  A    between atoms: C_1  and  C_8
REMARK    3  A    between atoms: C_8  and  C_10
REMARK    4  A    between atoms: C_10  and  O_11
REMARK                            x       y       z     vdW  Elec       q    Type
REMARK                         _______ _______ _______ _____ _____    ______ ____
ROOT
ATOM      1  C   UNL     1      33.437 -20.093 -20.643  0.00  0.00    +0.038 C 
ENDROOT
BRANCH   1   2
ATOM      2  C   UNL     1      34.130 -19.067 -21.474  0.00  0.00    -0.022 C 
ATOM      3  C   UNL     1      34.196 -17.744 -21.038  0.00  0.00    -0.004 C 
ATOM      4  C   UNL     1      34.713 -19.430 -22.688  0.00  0.00    -0.004 C 
ATOM      5  C   UNL     1      34.844 -16.783 -21.815  0.00  0.00    -0.000 C 
ATOM      6  C   UNL     1      35.361 -18.470 -23.466  0.00  0.00    -0.000 C 
ATOM      7  C   UNL     1      35.426 -17.147 -23.029  0.00  0.00    -0.000 C 
ENDBRANCH   1   2
BRANCH   1   8
ATOM      8  C   UNL     1      34.393 -21.009 -19.870  0.00  0.00    +0.114 C 
BRANCH   8  10
ATOM      9  O   UNL     1      34.110 -23.377 -19.487  0.00  0.00    -0.250 OA
ATOM     10  C   UNL     1      33.687 -22.236 -19.346  0.00  0.00    +0.314 C 
BRANCH  10  11
ATOM     11  O   UNL     1      32.517 -21.949 -18.725  0.00  0.00    -0.480 OA
ATOM     12  H   UNL     1      31.717 -21.943 -19.214  0.00  0.00    +0.295 HD
ENDBRANCH  10  11
ENDBRANCH   8  10
ENDBRANCH   1   8
TORSDOF 4
ENDMDL
MODEL 5
REMARK VINA RESULT:      -6.4      4.291      5.794
REMARK  Name = 107
REMARK  4 active torsions:
REMARK  status: ('A' for Active; 'I' for Inactive)
REMARK    1  A    between atoms: C_1  and  C_2
REMARK    2  A    between atoms: C_1  and  C_8
REMARK    3  A    between atoms: C_8  and  C_10
REMARK    4  A    between atoms: C_10  and  O_11
REMARK                            x       y       z     vdW  Elec       q    Type
REMARK                         _______ _______ _______ _____ _____    ______ ____
ROOT
ATOM      1  C   UNL     1      33.376 -21.345 -19.790  0.00  0.00    +0.038 C 
ENDROOT
BRANCH   1   2
ATOM      2  C   UNL     1      34.330 -20.350 -20.358  0.00  0.00    -0.022 C 
ATOM      3  C   UNL     1      33.849 -19.247 -21.065  0.00  0.00    -0.004 C 
ATOM      4  C   UNL     1      35.703 -20.520 -20.182  0.00  0.00    -0.004 C 
ATOM      5  C   UNL     1      34.741 -18.315 -21.596  0.00  0.00    -0.000 C 
ATOM      6  C   UNL     1      36.596 -19.589 -20.714  0.00  0.00    -0.000 C 
ATOM      7  C   UNL     1      36.114 -18.487 -21.420  0.00  0.00    -0.000 C 
ENDBRANCH   1   2
BRANCH   1   8
ATOM      8  C   UNL     1      34.054 -22.602 -19.233  0.00  0.00    +0.114 C 
BRANCH   8  10
ATOM      9  O   UNL     1      34.043 -23.671 -17.067  0.00  0.00    -0.250 OA
ATOM     10  C   UNL     1      33.442 -23.031 -17.921  0.00  0.00    +0.314 C 
BRANCH  10  11
ATOM     11  O   UNL     1      32.145 -22.659 -17.797  0.00  0.00    -0.480 OA
ATOM     12  H   UNL     1      31.499 -23.290 -17.549  0.00  0.00    +0.295 HD
ENDBRANCH  10  11
ENDBRANCH   8  10
ENDBRANCH   1   8
TORSDOF 4
ENDMDL
MODEL 6
REMARK VINA RESULT:      -6.4      3.085      5.247
REMARK  Name = 107
REMARK  4 active torsions:
REMARK  status: ('A' for Active; 'I' for Inactive)
REMARK    1  A    between atoms: C_1  and  C_2
REMARK    2  A    between atoms: C_1  and  C_8
REMARK    3  A    between atoms: C_8  and  C_10
REMARK    4  A    between atoms: C_10  and  O_11
REMARK                            x       y       z     vdW  Elec       q    Type
REMARK                         _______ _______ _______ _____ _____    ______ ____
ROOT
ATOM      1  C   UNL     1      34.792 -19.081 -21.291  0.00  0.00    +0.038 C 
ENDROOT
BRANCH   1   2
ATOM      2  C   UNL     1      34.783 -18.310 -22.567  0.00  0.00    -0.022 C 
ATOM      3  C   UNL     1      34.585 -18.971 -23.779  0.00  0.00    -0.004 C 
ATOM      4  C   UNL     1      34.972 -16.928 -22.550  0.00  0.00    -0.004 C 
ATOM      5  C   UNL     1      34.576 -18.251 -24.974  0.00  0.00    -0.000 C 
ATOM      6  C   UNL     1      34.964 -16.207 -23.744  0.00  0.00    -0.000 C 
ATOM      7  C   UNL     1      34.765 -16.869 -24.956  0.00  0.00    -0.000 C 
ENDBRANCH   1   2
BRANCH   1   8
ATOM      8  C   UNL     1      33.503 -19.870 -21.037  0.00  0.00    +0.114 C 
BRANCH   8  10
ATOM      9  O   UNL     1      34.716 -21.406 -19.621  0.00  0.00    -0.250 OA
ATOM     10  C   UNL     1      33.661 -20.847 -19.897  0.00  0.00    +0.314 C 
BRANCH  10  11
ATOM     11  O   UNL     1      32.505 -21.066 -19.225  0.00  0.00    -0.480 OA
ATOM     12  H   UNL     1      32.143 -20.392 -18.684  0.00  0.00    +0.295 HD
ENDBRANCH  10  11
ENDBRANCH   8  10
ENDBRANCH   1   8
TORSDOF 4
ENDMDL
MODEL 7
REMARK VINA RESULT:      -6.3      7.340      8.779
REMARK  Name = 107
REMARK  4 active torsions:
REMARK  status: ('A' for Active; 'I' for Inactive)
REMARK    1  A    between atoms: C_1  and  C_2
REMARK    2  A    between atoms: C_1  and  C_8
REMARK    3  A    between atoms: C_8  and  C_10
REMARK    4  A    between atoms: C_10  and  O_11
REMARK                            x       y       z     vdW  Elec       q    Type
REMARK                         _______ _______ _______ _____ _____    ______ ____
ROOT
ATOM      1  C   UNL     1      30.070 -22.921 -15.193  0.00  0.00    +0.038 C 
ENDROOT
BRANCH   1   2
ATOM      2  C   UNL     1      31.505 -23.086 -15.560  0.00  0.00    -0.022 C 
ATOM      3  C   UNL     1      31.891 -23.051 -16.900  0.00  0.00    -0.004 C 
ATOM      4  C   UNL     1      32.464 -23.274 -14.564  0.00  0.00    -0.004 C 
ATOM      5  C   UNL     1      33.235 -23.205 -17.244  0.00  0.00    -0.000 C 
ATOM      6  C   UNL     1      33.807 -23.429 -14.907  0.00  0.00    -0.000 C 
ATOM      7  C   UNL     1      34.192 -23.394 -16.247  0.00  0.00    -0.000 C 
ENDBRANCH   1   2
BRANCH   1   8
ATOM      8  C   UNL     1      29.140 -23.937 -15.866  0.00  0.00    +0.114 C 
BRANCH   8  10
ATOM      9  O   UNL     1      27.545 -23.918 -17.681  0.00  0.00    -0.250 OA
ATOM     10  C   UNL     1      28.296 -23.295 -16.941  0.00  0.00    +0.314 C 
BRANCH  10  11
ATOM     11  O   UNL     1      28.477 -21.953 -17.023  0.00  0.00    -0.480 OA
ATOM     12  H   UNL     1      29.332 -21.605 -17.179  0.00  0.00    +0.295 HD
ENDBRANCH  10  11
ENDBRANCH   8  10
ENDBRANCH   1   8
TORSDOF 4
ENDMDL
MODEL 8
REMARK VINA RESULT:      -6.3      1.898      2.707
REMARK  Name = 107
REMARK  4 active torsions:
REMARK  status: ('A' for Active; 'I' for Inactive)
REMARK    1  A    between atoms: C_1  and  C_2
REMARK    2  A    between atoms: C_1  and  C_8
REMARK    3  A    between atoms: C_8  and  C_10
REMARK    4  A    between atoms: C_10  and  O_11
REMARK                            x       y       z     vdW  Elec       q    Type
REMARK                         _______ _______ _______ _____ _____    ______ ____
ROOT
ATOM      1  C   UNL     1      34.939 -17.928 -21.769  0.00  0.00    +0.038 C 
ENDROOT
BRANCH   1   2
ATOM      2  C   UNL     1      34.657 -19.172 -20.999  0.00  0.00    -0.022 C 
ATOM      3  C   UNL     1      35.711 -19.973 -20.557  0.00  0.00    -0.004 C 
ATOM      4  C   UNL     1      33.341 -19.538 -20.718  0.00  0.00    -0.004 C 
ATOM      5  C   UNL     1      35.449 -21.138 -19.836  0.00  0.00    -0.000 C 
ATOM      6  C   UNL     1      33.077 -20.703 -19.998  0.00  0.00    -0.000 C 
ATOM      7  C   UNL     1      34.132 -21.502 -19.556  0.00  0.00    -0.000 C 
ENDBRANCH   1   2
BRANCH   1   8
ATOM      8  C   UNL     1      33.883 -16.832 -21.579  0.00  0.00    +0.114 C 
BRANCH   8  10
ATOM      9  O   UNL     1      34.595 -14.598 -22.159  0.00  0.00    -0.250 OA
ATOM     10  C   UNL     1      34.516 -15.487 -21.319  0.00  0.00    +0.314 C 
BRANCH  10  11
ATOM     11  O   UNL     1      35.017 -15.372 -20.065  0.00  0.00    -0.480 OA
ATOM     12  H   UNL     1      35.422 -16.110 -19.653  0.00  0.00    +0.295 HD
ENDBRANCH  10  11
ENDBRANCH   8  10
ENDBRANCH   1   8
TORSDOF 4
ENDMDL
MODEL 9
REMARK VINA RESULT:      -6.3      8.701      9.638
REMARK  Name = 107
REMARK  4 active torsions:
REMARK  status: ('A' for Active; 'I' for Inactive)
REMARK    1  A    between atoms: C_1  and  C_2
REMARK    2  A    between atoms: C_1  and  C_8
REMARK    3  A    between atoms: C_8  and  C_10
REMARK    4  A    between atoms: C_10  and  O_11
REMARK                            x       y       z     vdW  Elec       q    Type
REMARK                         _______ _______ _______ _____ _____    ______ ____
ROOT
ATOM      1  C   UNL     1      28.651 -23.959 -15.638  0.00  0.00    +0.038 C 
ENDROOT
BRANCH   1   2
ATOM      2  C   UNL     1      30.060 -24.015 -15.152  0.00  0.00    -0.022 C 
ATOM      3  C   UNL     1      30.428 -24.952 -14.186  0.00  0.00    -0.004 C 
ATOM      4  C   UNL     1      31.011 -23.132 -15.663  0.00  0.00    -0.004 C 
ATOM      5  C   UNL     1      31.746 -25.006 -13.731  0.00  0.00    -0.000 C 
ATOM      6  C   UNL     1      32.328 -23.184 -15.208  0.00  0.00    -0.000 C 
ATOM      7  C   UNL     1      32.695 -24.121 -14.243  0.00  0.00    -0.000 C 
ENDBRANCH   1   2
BRANCH   1   8
ATOM      8  C   UNL     1      28.098 -22.535 -15.764  0.00  0.00    +0.114 C 
BRANCH   8  10
ATOM      9  O   UNL     1      26.840 -21.290 -17.407  0.00  0.00    -0.250 OA
ATOM     10  C   UNL     1      27.474 -22.297 -17.117  0.00  0.00    +0.314 C 
BRANCH  10  11
ATOM     11  O   UNL     1      27.662 -23.330 -17.975  0.00  0.00    -0.480 OA
ATOM     12  H   UNL     1      27.014 -24.002 -18.048  0.00  0.00    +0.295 HD
ENDBRANCH  10  11
ENDBRANCH   8  10
ENDBRANCH   1   8
TORSDOF 4
ENDMDL
