MODEL 1
REMARK VINA RESULT:      -9.9      0.000      0.000
REMARK  Name = 33255
REMARK  8 active torsions:
REMARK  status: ('A' for Active; 'I' for Inactive)
REMARK    1  A    between atoms: CA_5  and  N_11
REMARK    2  A    between atoms: CA_7  and  C_21
REMARK    3  A    between atoms: C_8  and  C_24
REMARK    4  A    between atoms: C_12  and  C_14
REMARK    5  A    between atoms: C_14  and  N_15
REMARK    6  A    between atoms: C_21  and  O_22
REMARK    7  A    between atoms: C_24  and  S_25
REMARK    8  A    between atoms: S_25  and  C_29
REMARK                            x       y       z     vdW  Elec       q    Type
REMARK                         _______ _______ _______ _____ _____    ______ ____
ROOT
ATOM      1  S   UNL     1      37.462 -22.569 -16.173  0.00  0.00    -0.114 S 
ATOM      2  O   UNL     1      33.410 -24.507 -14.975  0.00  0.00    -0.273 OA
ATOM      3  N   UNL     1      34.841 -22.980 -16.060  0.00  0.00    -0.242 N 
ATOM      4  C   UNL     1      35.901 -22.352 -15.291  0.00  0.00    +0.155 C 
ATOM      5  CA  UNL     1      35.584 -23.389 -14.190  0.00  0.00    +0.178 C 
ATOM      6  C   UNL     1      34.359 -23.764 -15.073  0.00  0.00    +0.251 C 
ATOM      7  CA  UNL     1      34.597 -22.708 -17.368  0.00  0.00    +0.124 C 
ATOM      8  C   UNL     1      35.499 -22.050 -18.135  0.00  0.00    -0.002 C 
ATOM      9  C   UNL     1      36.888 -21.652 -17.643  0.00  0.00    +0.083 C 
ENDROOT
BRANCH   5  11
ATOM     10  O   UNL     1      36.763 -24.231 -11.690  0.00  0.00    -0.273 OA
ATOM     11  N   UNL     1      36.515 -24.497 -13.982  0.00  0.00    -0.295 N 
ATOM     12  C   UNL     1      37.033 -24.827 -12.730  0.00  0.00    +0.245 C 
ATOM     13  H   UNL     1      36.790 -25.033 -14.761  0.00  0.00    +0.150 HD
BRANCH  12  14
ATOM     14  C   UNL     1      37.974 -26.011 -12.799  0.00  0.00    +0.204 C 
BRANCH  14  15
ATOM     15  N   UNL     1      39.078 -25.800 -13.730  0.00  0.00    -0.162 N 
ATOM     16  N   UNL     1      39.192 -26.541 -14.827  0.00  0.00    -0.051 NA
ATOM     17  N   UNL     1      40.851 -25.058 -14.690  0.00  0.00    -0.108 NA
ATOM     18  N   UNL     1      40.288 -26.081 -15.419  0.00  0.00    -0.025 NA
ATOM     19  C   UNL     1      40.076 -24.902 -13.641  0.00  0.00    +0.211 C 
ENDBRANCH  14  15
ENDBRANCH  12  14
ENDBRANCH   5  11
BRANCH   7  21
ATOM     20  OXT UNL     1      32.252 -22.697 -17.759  0.00  0.00    -0.244 OA
ATOM     21  C   UNL     1      33.336 -23.217 -17.930  0.00  0.00    +0.351 C 
BRANCH  21  22
ATOM     22  O   UNL     1      33.583 -24.329 -18.648  0.00  0.00    -0.476 OA
ATOM     23  H   UNL     1      33.017 -25.071 -18.572  0.00  0.00    +0.295 HD
ENDBRANCH  21  22
ENDBRANCH   7  21
BRANCH   8  24
ATOM     24  C   UNL     1      35.267 -21.641 -19.569  0.00  0.00    +0.088 C 
BRANCH  24  25
ATOM     25  S   UNL     1      36.664 -20.660 -20.144  0.00  0.00    -0.082 S 
BRANCH  25  29
ATOM     26  S   UNL     1      36.554 -18.351 -22.126  0.00  0.00    -0.044 S 
ATOM     27  N   UNL     1      34.565 -19.071 -20.680  0.00  0.00    -0.135 NA
ATOM     28  N   UNL     1      34.112 -18.003 -21.433  0.00  0.00    -0.145 NA
ATOM     29  C   UNL     1      35.811 -19.339 -20.954  0.00  0.00    +0.159 A 
ATOM     30  C   UNL     1      35.050 -17.534 -22.228  0.00  0.00    +0.112 A 
ATOM     31  C   UNL     1      34.888 -16.400 -23.162  0.00  0.00    +0.061 C 
ENDBRANCH  25  29
ENDBRANCH  24  25
ENDBRANCH   8  24
TORSDOF 8
ENDMDL
MODEL 2
REMARK VINA RESULT:      -9.3      6.433     12.195
REMARK  Name = 33255
REMARK  8 active torsions:
REMARK  status: ('A' for Active; 'I' for Inactive)
REMARK    1  A    between atoms: CA_5  and  N_11
REMARK    2  A    between atoms: CA_7  and  C_21
REMARK    3  A    between atoms: C_8  and  C_24
REMARK    4  A    between atoms: C_12  and  C_14
REMARK    5  A    between atoms: C_14  and  N_15
REMARK    6  A    between atoms: C_21  and  O_22
REMARK    7  A    between atoms: C_24  and  S_25
REMARK    8  A    between atoms: S_25  and  C_29
REMARK                            x       y       z     vdW  Elec       q    Type
REMARK                         _______ _______ _______ _____ _____    ______ ____
ROOT
ATOM      1  S   UNL     1      34.289 -15.389 -21.013  0.00  0.00    -0.114 S 
ATOM      2  O   UNL     1      33.363 -14.620 -25.504  0.00  0.00    -0.273 OA
ATOM      3  N   UNL     1      34.399 -15.651 -23.653  0.00  0.00    -0.242 N 
ATOM      4  C   UNL     1      34.934 -14.809 -22.598  0.00  0.00    +0.155 C 
ATOM      5  CA  UNL     1      34.168 -13.647 -23.268  0.00  0.00    +0.178 C 
ATOM      6  C   UNL     1      33.890 -14.660 -24.416  0.00  0.00    +0.251 C 
ATOM      7  CA  UNL     1      34.495 -17.006 -23.659  0.00  0.00    +0.124 C 
ATOM      8  C   UNL     1      34.839 -17.696 -22.546  0.00  0.00    -0.002 C 
ATOM      9  C   UNL     1      35.045 -17.041 -21.182  0.00  0.00    +0.083 C 
ENDROOT
BRANCH   5  11
ATOM     10  O   UNL     1      33.068 -10.982 -23.458  0.00  0.00    -0.273 OA
ATOM     11  N   UNL     1      32.955 -13.145 -22.626  0.00  0.00    -0.295 N 
ATOM     12  C   UNL     1      32.503 -11.834 -22.778  0.00  0.00    +0.245 C 
ATOM     13  H   UNL     1      32.434 -13.759 -22.058  0.00  0.00    +0.150 HD
BRANCH  12  14
ATOM     14  C   UNL     1      31.228 -11.580 -22.003  0.00  0.00    +0.204 C 
BRANCH  14  15
ATOM     15  N   UNL     1      31.457 -10.838 -20.768  0.00  0.00    -0.162 N 
ATOM     16  N   UNL     1      31.707  -9.532 -20.796  0.00  0.00    -0.051 NA
ATOM     17  N   UNL     1      31.706 -10.299 -18.703  0.00  0.00    -0.108 NA
ATOM     18  N   UNL     1      31.859  -9.201 -19.520  0.00  0.00    -0.025 NA
ATOM     19  C   UNL     1      31.456 -11.307 -19.507  0.00  0.00    +0.211 C 
ENDBRANCH  14  15
ENDBRANCH  12  14
ENDBRANCH   5  11
BRANCH   7  21
ATOM     20  OXT UNL     1      33.381 -18.633 -24.987  0.00  0.00    -0.244 OA
ATOM     21  C   UNL     1      34.146 -17.693 -24.912  0.00  0.00    +0.351 C 
BRANCH  21  22
ATOM     22  O   UNL     1      34.804 -17.116 -25.936  0.00  0.00    -0.476 OA
ATOM     23  H   UNL     1      34.907 -17.576 -26.746  0.00  0.00    +0.295 HD
ENDBRANCH  21  22
ENDBRANCH   7  21
BRANCH   8  24
ATOM     24  C   UNL     1      35.045 -19.190 -22.493  0.00  0.00    +0.088 C 
BRANCH  24  25
ATOM     25  S   UNL     1      36.043 -19.606 -21.054  0.00  0.00    -0.082 S 
BRANCH  25  29
ATOM     26  S   UNL     1      35.395 -21.866 -19.119  0.00  0.00    -0.044 S 
ATOM     27  N   UNL     1      33.611 -20.410 -20.245  0.00  0.00    -0.135 NA
ATOM     28  N   UNL     1      32.916 -21.306 -19.453  0.00  0.00    -0.145 NA
ATOM     29  C   UNL     1      34.896 -20.606 -20.151  0.00  0.00    +0.159 A 
ATOM     30  C   UNL     1      33.727 -22.122 -18.812  0.00  0.00    +0.112 A 
ATOM     31  C   UNL     1      33.302 -23.192 -17.886  0.00  0.00    +0.061 C 
ENDBRANCH  25  29
ENDBRANCH  24  25
ENDBRANCH   8  24
TORSDOF 8
ENDMDL
MODEL 3
REMARK VINA RESULT:      -9.0      3.887      6.475
REMARK  Name = 33255
REMARK  8 active torsions:
REMARK  status: ('A' for Active; 'I' for Inactive)
REMARK    1  A    between atoms: CA_5  and  N_11
REMARK    2  A    between atoms: CA_7  and  C_21
REMARK    3  A    between atoms: C_8  and  C_24
REMARK    4  A    between atoms: C_12  and  C_14
REMARK    5  A    between atoms: C_14  and  N_15
REMARK    6  A    between atoms: C_21  and  O_22
REMARK    7  A    between atoms: C_24  and  S_25
REMARK    8  A    between atoms: S_25  and  C_29
REMARK                            x       y       z     vdW  Elec       q    Type
REMARK                         _______ _______ _______ _____ _____    ______ ____
ROOT
ATOM      1  S   UNL     1      32.646 -21.534 -19.249  0.00  0.00    -0.114 S 
ATOM      2  O   UNL     1      35.058 -23.250 -15.664  0.00  0.00    -0.273 OA
ATOM      3  N   UNL     1      34.704 -22.486 -17.867  0.00  0.00    -0.242 N 
ATOM      4  C   UNL     1      33.535 -22.961 -18.587  0.00  0.00    +0.155 C 
ATOM      5  CA  UNL     1      33.041 -23.510 -17.231  0.00  0.00    +0.178 C 
ATOM      6  C   UNL     1      34.453 -23.123 -16.703  0.00  0.00    +0.251 C 
ATOM      7  CA  UNL     1      35.634 -21.654 -18.402  0.00  0.00    +0.124 C 
ATOM      8  C   UNL     1      35.397 -20.972 -19.548  0.00  0.00    -0.002 C 
ATOM      9  C   UNL     1      34.054 -20.990 -20.274  0.00  0.00    +0.083 C 
ENDROOT
BRANCH   5  11
ATOM     10  O   UNL     1      31.029 -24.677 -15.516  0.00  0.00    -0.273 OA
ATOM     11  N   UNL     1      31.951 -22.814 -16.548  0.00  0.00    -0.295 N 
ATOM     12  C   UNL     1      31.024 -23.469 -15.737  0.00  0.00    +0.245 C 
ATOM     13  H   UNL     1      31.867 -21.840 -16.668  0.00  0.00    +0.150 HD
BRANCH  12  14
ATOM     14  C   UNL     1      30.002 -22.514 -15.158  0.00  0.00    +0.204 C 
BRANCH  14  15
ATOM     15  N   UNL     1      28.772 -22.460 -15.942  0.00  0.00    -0.162 N 
ATOM     16  N   UNL     1      28.807 -22.559 -17.267  0.00  0.00    -0.051 NA
ATOM     17  N   UNL     1      26.714 -22.317 -16.539  0.00  0.00    -0.108 NA
ATOM     18  N   UNL     1      27.534 -22.471 -17.634  0.00  0.00    -0.025 NA
ATOM     19  C   UNL     1      27.512 -22.314 -15.496  0.00  0.00    +0.211 C 
ENDBRANCH  14  15
ENDBRANCH  12  14
ENDBRANCH   5  11
BRANCH   7  21
ATOM     20  OXT UNL     1      37.337 -20.404 -17.313  0.00  0.00    -0.244 OA
ATOM     21  C   UNL     1      36.884 -21.480 -17.648  0.00  0.00    +0.351 C 
BRANCH  21  22
ATOM     22  O   UNL     1      37.429 -22.687 -17.400  0.00  0.00    -0.476 OA
ATOM     23  H   UNL     1      36.940 -23.334 -16.932  0.00  0.00    +0.295 HD
ENDBRANCH  21  22
ENDBRANCH   7  21
BRANCH   8  24
ATOM     24  C   UNL     1      36.407 -20.094 -20.247  0.00  0.00    +0.088 C 
BRANCH  24  25
ATOM     25  S   UNL     1      35.826 -19.723 -21.910  0.00  0.00    -0.082 S 
BRANCH  25  29
ATOM     26  S   UNL     1      34.978 -17.027 -23.041  0.00  0.00    -0.044 S 
ATOM     27  N   UNL     1      35.346 -17.462 -20.542  0.00  0.00    -0.135 NA
ATOM     28  N   UNL     1      34.973 -16.134 -20.639  0.00  0.00    -0.145 NA
ATOM     29  C   UNL     1      35.381 -18.022 -21.719  0.00  0.00    +0.159 A 
ATOM     30  C   UNL     1      34.751 -15.778 -21.887  0.00  0.00    +0.112 A 
ATOM     31  C   UNL     1      34.336 -14.431 -22.329  0.00  0.00    +0.061 C 
ENDBRANCH  25  29
ENDBRANCH  24  25
ENDBRANCH   8  24
TORSDOF 8
ENDMDL
MODEL 4
REMARK VINA RESULT:      -8.9      5.979      9.336
REMARK  Name = 33255
REMARK  8 active torsions:
REMARK  status: ('A' for Active; 'I' for Inactive)
REMARK    1  A    between atoms: CA_5  and  N_11
REMARK    2  A    between atoms: CA_7  and  C_21
REMARK    3  A    between atoms: C_8  and  C_24
REMARK    4  A    between atoms: C_12  and  C_14
REMARK    5  A    between atoms: C_14  and  N_15
REMARK    6  A    between atoms: C_21  and  O_22
REMARK    7  A    between atoms: C_24  and  S_25
REMARK    8  A    between atoms: S_25  and  C_29
REMARK                            x       y       z     vdW  Elec       q    Type
REMARK                         _______ _______ _______ _____ _____    ______ ____
ROOT
ATOM      1  S   UNL     1      34.867 -17.952 -24.507  0.00  0.00    -0.114 S 
ATOM      2  O   UNL     1      34.819 -16.383 -20.130  0.00  0.00    -0.273 OA
ATOM      3  N   UNL     1      34.777 -16.234 -22.483  0.00  0.00    -0.242 N 
ATOM      4  C   UNL     1      35.746 -17.002 -23.246  0.00  0.00    +0.155 C 
ATOM      5  CA  UNL     1      36.059 -17.738 -21.924  0.00  0.00    +0.178 C 
ATOM      6  C   UNL     1      35.146 -16.669 -21.259  0.00  0.00    +0.251 C 
ATOM      7  CA  UNL     1      33.867 -15.398 -23.045  0.00  0.00    +0.124 C 
ATOM      8  C   UNL     1      33.599 -15.433 -24.372  0.00  0.00    -0.002 C 
ATOM      9  C   UNL     1      34.202 -16.462 -25.325  0.00  0.00    +0.083 C 
ENDROOT
BRANCH   5  11
ATOM     10  O   UNL     1      36.819 -19.614 -19.862  0.00  0.00    -0.273 OA
ATOM     11  N   UNL     1      35.574 -19.107 -21.754  0.00  0.00    -0.295 N 
ATOM     12  C   UNL     1      36.004 -19.941 -20.721  0.00  0.00    +0.245 C 
ATOM     13  H   UNL     1      34.917 -19.458 -22.398  0.00  0.00    +0.150 HD
BRANCH  12  14
ATOM     14  C   UNL     1      35.348 -21.303 -20.781  0.00  0.00    +0.204 C 
BRANCH  14  15
ATOM     15  N   UNL     1      34.129 -21.379 -19.982  0.00  0.00    -0.162 N 
ATOM     16  N   UNL     1      33.198 -20.434 -20.073  0.00  0.00    -0.051 NA
ATOM     17  N   UNL     1      32.601 -22.004 -18.608  0.00  0.00    -0.108 NA
ATOM     18  N   UNL     1      32.255 -20.822 -19.224  0.00  0.00    -0.025 NA
ATOM     19  C   UNL     1      33.775 -22.329 -19.099  0.00  0.00    +0.211 C 
ENDBRANCH  14  15
ENDBRANCH  12  14
ENDBRANCH   5  11
BRANCH   7  21
ATOM     20  OXT UNL     1      32.070 -14.756 -21.627  0.00  0.00    -0.244 OA
ATOM     21  C   UNL     1      33.141 -14.497 -22.138  0.00  0.00    +0.351 C 
BRANCH  21  22
ATOM     22  O   UNL     1      33.848 -13.362 -21.974  0.00  0.00    -0.476 OA
ATOM     23  H   UNL     1      33.658 -12.791 -21.256  0.00  0.00    +0.295 HD
ENDBRANCH  21  22
ENDBRANCH   7  21
BRANCH   8  24
ATOM     24  C   UNL     1      32.664 -14.484 -25.083  0.00  0.00    +0.088 C 
BRANCH  24  25
ATOM     25  S   UNL     1      33.605 -13.463 -26.229  0.00  0.00    -0.082 S 
BRANCH  25  29
ATOM     26  S   UNL     1      34.877 -10.751 -25.687  0.00  0.00    -0.044 S 
ATOM     27  N   UNL     1      33.095 -11.805 -24.178  0.00  0.00    -0.135 NA
ATOM     28  N   UNL     1      33.408 -10.591 -23.593  0.00  0.00    -0.145 NA
ATOM     29  C   UNL     1      33.792 -11.993 -25.263  0.00  0.00    +0.159 A 
ATOM     30  C   UNL     1      34.324  -9.941 -24.280  0.00  0.00    +0.112 A 
ATOM     31  C   UNL     1      34.874  -8.616 -23.926  0.00  0.00    +0.061 C 
ENDBRANCH  25  29
ENDBRANCH  24  25
ENDBRANCH   8  24
TORSDOF 8
ENDMDL
MODEL 5
REMARK VINA RESULT:      -8.6      4.311      6.261
REMARK  Name = 33255
REMARK  8 active torsions:
REMARK  status: ('A' for Active; 'I' for Inactive)
REMARK    1  A    between atoms: CA_5  and  N_11
REMARK    2  A    between atoms: CA_7  and  C_21
REMARK    3  A    between atoms: C_8  and  C_24
REMARK    4  A    between atoms: C_12  and  C_14
REMARK    5  A    between atoms: C_14  and  N_15
REMARK    6  A    between atoms: C_21  and  O_22
REMARK    7  A    between atoms: C_24  and  S_25
REMARK    8  A    between atoms: S_25  and  C_29
REMARK                            x       y       z     vdW  Elec       q    Type
REMARK                         _______ _______ _______ _____ _____    ______ ____
ROOT
ATOM      1  S   UNL     1      32.687 -20.730 -19.892  0.00  0.00    -0.114 S 
ATOM      2  O   UNL     1      36.819 -22.094 -18.253  0.00  0.00    -0.273 OA
ATOM      3  N   UNL     1      35.304 -21.178 -19.811  0.00  0.00    -0.242 N 
ATOM      4  C   UNL     1      34.064 -21.887 -20.074  0.00  0.00    +0.155 C 
ATOM      5  CA  UNL     1      34.405 -22.747 -18.837  0.00  0.00    +0.178 C 
ATOM      6  C   UNL     1      35.780 -22.018 -18.867  0.00  0.00    +0.251 C 
ATOM      7  CA  UNL     1      35.666 -20.032 -20.442  0.00  0.00    +0.124 C 
ATOM      8  C   UNL     1      34.772 -19.303 -21.153  0.00  0.00    -0.002 C 
ATOM      9  C   UNL     1      33.284 -19.636 -21.226  0.00  0.00    +0.083 C 
ENDROOT
BRANCH   5  11
ATOM     10  O   UNL     1      34.470 -24.368 -16.445  0.00  0.00    -0.273 OA
ATOM     11  N   UNL     1      33.655 -22.528 -17.602  0.00  0.00    -0.295 N 
ATOM     12  C   UNL     1      33.753 -23.371 -16.495  0.00  0.00    +0.245 C 
ATOM     13  H   UNL     1      33.051 -21.751 -17.549  0.00  0.00    +0.150 HD
BRANCH  12  14
ATOM     14  C   UNL     1      32.868 -22.917 -15.355  0.00  0.00    +0.204 C 
BRANCH  14  15
ATOM     15  N   UNL     1      31.446 -23.048 -15.657  0.00  0.00    -0.162 N 
ATOM     16  N   UNL     1      30.960 -22.642 -16.826  0.00  0.00    -0.051 NA
ATOM     17  N   UNL     1      29.345 -23.481 -15.538  0.00  0.00    -0.108 NA
ATOM     18  N   UNL     1      29.662 -22.911 -16.751  0.00  0.00    -0.025 NA
ATOM     19  C   UNL     1      30.476 -23.555 -14.875  0.00  0.00    +0.211 C 
ENDBRANCH  14  15
ENDBRANCH  12  14
ENDBRANCH   5  11
BRANCH   7  21
ATOM     20  OXT UNL     1      37.807 -19.306 -21.178  0.00  0.00    -0.244 OA
ATOM     21  C   UNL     1      37.055 -19.584 -20.265  0.00  0.00    +0.351 C 
BRANCH  21  22
ATOM     22  O   UNL     1      37.346 -19.535 -18.951  0.00  0.00    -0.476 OA
ATOM     23  H   UNL     1      36.662 -19.398 -18.325  0.00  0.00    +0.295 HD
ENDBRANCH  21  22
ENDBRANCH   7  21
BRANCH   8  24
ATOM     24  C   UNL     1      35.115 -18.066 -21.947  0.00  0.00    +0.088 C 
BRANCH  24  25
ATOM     25  S   UNL     1      35.340 -18.509 -23.678  0.00  0.00    -0.082 S 
BRANCH  25  29
ATOM     26  S   UNL     1      34.100 -15.730 -23.597  0.00  0.00    -0.044 S 
ATOM     27  N   UNL     1      34.407 -17.082 -25.752  0.00  0.00    -0.135 NA
ATOM     28  N   UNL     1      33.817 -15.892 -26.139  0.00  0.00    -0.145 NA
ATOM     29  C   UNL     1      34.599 -17.109 -24.463  0.00  0.00    +0.159 A 
ATOM     30  C   UNL     1      33.603 -15.097 -25.111  0.00  0.00    +0.112 A 
ATOM     31  C   UNL     1      32.991 -13.754 -25.185  0.00  0.00    +0.061 C 
ENDBRANCH  25  29
ENDBRANCH  24  25
ENDBRANCH   8  24
TORSDOF 8
ENDMDL
MODEL 6
REMARK VINA RESULT:      -8.5      6.575     13.225
REMARK  Name = 33255
REMARK  8 active torsions:
REMARK  status: ('A' for Active; 'I' for Inactive)
REMARK    1  A    between atoms: CA_5  and  N_11
REMARK    2  A    between atoms: CA_7  and  C_21
REMARK    3  A    between atoms: C_8  and  C_24
REMARK    4  A    between atoms: C_12  and  C_14
REMARK    5  A    between atoms: C_14  and  N_15
REMARK    6  A    between atoms: C_21  and  O_22
REMARK    7  A    between atoms: C_24  and  S_25
REMARK    8  A    between atoms: S_25  and  C_29
REMARK                            x       y       z     vdW  Elec       q    Type
REMARK                         _______ _______ _______ _____ _____    ______ ____
ROOT
ATOM      1  S   UNL     1      33.836 -13.462 -24.563  0.00  0.00    -0.114 S 
ATOM      2  O   UNL     1      32.267 -13.342 -20.188  0.00  0.00    -0.273 OA
ATOM      3  N   UNL     1      32.986 -14.334 -22.203  0.00  0.00    -0.242 N 
ATOM      4  C   UNL     1      32.455 -13.826 -23.456  0.00  0.00    +0.155 C 
ATOM      5  CA  UNL     1      31.905 -12.641 -22.631  0.00  0.00    +0.178 C 
ATOM      6  C   UNL     1      32.355 -13.461 -21.388  0.00  0.00    +0.251 C 
ATOM      7  CA  UNL     1      33.847 -15.380 -22.117  0.00  0.00    +0.124 C 
ATOM      8  C   UNL     1      34.504 -15.847 -23.206  0.00  0.00    -0.002 C 
ATOM      9  C   UNL     1      34.422 -15.190 -24.582  0.00  0.00    +0.083 C 
ENDROOT
BRANCH   5  11
ATOM     10  O   UNL     1      30.656 -10.036 -22.556  0.00  0.00    -0.273 OA
ATOM     11  N   UNL     1      32.566 -11.342 -22.744  0.00  0.00    -0.295 N 
ATOM     12  C   UNL     1      31.873 -10.132 -22.697  0.00  0.00    +0.245 C 
ATOM     13  H   UNL     1      33.543 -11.319 -22.861  0.00  0.00    +0.150 HD
BRANCH  12  14
ATOM     14  C   UNL     1      32.798  -8.943 -22.842  0.00  0.00    +0.204 C 
BRANCH  14  15
ATOM     15  N   UNL     1      32.607  -7.948 -21.791  0.00  0.00    -0.162 N 
ATOM     16  N   UNL     1      32.848  -8.249 -20.519  0.00  0.00    -0.051 NA
ATOM     17  N   UNL     1      32.161  -6.139 -20.722  0.00  0.00    -0.108 NA
ATOM     18  N   UNL     1      32.573  -7.130 -19.861  0.00  0.00    -0.025 NA
ATOM     19  C   UNL     1      32.191  -6.675 -21.921  0.00  0.00    +0.211 C 
ENDBRANCH  14  15
ENDBRANCH  12  14
ENDBRANCH   5  11
BRANCH   7  21
ATOM     20  OXT UNL     1      34.972 -15.588 -20.034  0.00  0.00    -0.244 OA
ATOM     21  C   UNL     1      34.081 -15.943 -20.779  0.00  0.00    +0.351 C 
BRANCH  21  22
ATOM     22  O   UNL     1      33.162 -16.895 -20.527  0.00  0.00    -0.476 OA
ATOM     23  H   UNL     1      32.361 -16.671 -20.096  0.00  0.00    +0.295 HD
ENDBRANCH  21  22
ENDBRANCH   7  21
BRANCH   8  24
ATOM     24  C   UNL     1      35.412 -17.053 -23.207  0.00  0.00    +0.088 C 
BRANCH  24  25
ATOM     25  S   UNL     1      34.450 -18.525 -23.595  0.00  0.00    -0.082 S 
BRANCH  25  29
ATOM     26  S   UNL     1      36.167 -19.822 -21.442  0.00  0.00    -0.044 S 
ATOM     27  N   UNL     1      33.604 -19.844 -21.414  0.00  0.00    -0.135 NA
ATOM     28  N   UNL     1      33.996 -20.528 -20.277  0.00  0.00    -0.145 NA
ATOM     29  C   UNL     1      34.641 -19.433 -22.090  0.00  0.00    +0.159 A 
ATOM     30  C   UNL     1      35.307 -20.590 -20.172  0.00  0.00    +0.112 A 
ATOM     31  C   UNL     1      36.044 -21.248 -19.073  0.00  0.00    +0.061 C 
ENDBRANCH  25  29
ENDBRANCH  24  25
ENDBRANCH   8  24
TORSDOF 8
ENDMDL
MODEL 7
REMARK VINA RESULT:      -8.4      2.456      8.238
REMARK  Name = 33255
REMARK  8 active torsions:
REMARK  status: ('A' for Active; 'I' for Inactive)
REMARK    1  A    between atoms: CA_5  and  N_11
REMARK    2  A    between atoms: CA_7  and  C_21
REMARK    3  A    between atoms: C_8  and  C_24
REMARK    4  A    between atoms: C_12  and  C_14
REMARK    5  A    between atoms: C_14  and  N_15
REMARK    6  A    between atoms: C_21  and  O_22
REMARK    7  A    between atoms: C_24  and  S_25
REMARK    8  A    between atoms: S_25  and  C_29
REMARK                            x       y       z     vdW  Elec       q    Type
REMARK                         _______ _______ _______ _____ _____    ______ ____
ROOT
ATOM      1  S   UNL     1      35.552 -22.425 -16.689  0.00  0.00    -0.114 S 
ATOM      2  O   UNL     1      31.130 -23.749 -16.136  0.00  0.00    -0.273 OA
ATOM      3  N   UNL     1      33.446 -23.703 -15.697  0.00  0.00    -0.242 N 
ATOM      4  C   UNL     1      34.368 -23.783 -16.817  0.00  0.00    +0.155 C 
ATOM      5  CA  UNL     1      33.139 -23.541 -17.721  0.00  0.00    +0.178 C 
ATOM      6  C   UNL     1      32.305 -23.711 -16.419  0.00  0.00    +0.251 C 
ATOM      7  CA  UNL     1      33.840 -23.643 -14.399  0.00  0.00    +0.124 C 
ATOM      8  C   UNL     1      35.121 -23.361 -14.061  0.00  0.00    -0.002 C 
ATOM      9  C   UNL     1      36.197 -22.990 -15.078  0.00  0.00    +0.083 C 
ENDROOT
BRANCH   5  11
ATOM     10  O   UNL     1      34.400 -22.604 -20.146  0.00  0.00    -0.273 OA
ATOM     11  N   UNL     1      32.979 -22.230 -18.350  0.00  0.00    -0.295 N 
ATOM     12  C   UNL     1      33.635 -21.869 -19.527  0.00  0.00    +0.245 C 
ATOM     13  H   UNL     1      32.383 -21.573 -17.922  0.00  0.00    +0.150 HD
BRANCH  12  14
ATOM     14  C   UNL     1      33.295 -20.458 -19.955  0.00  0.00    +0.204 C 
BRANCH  14  15
ATOM     15  N   UNL     1      34.360 -19.831 -20.731  0.00  0.00    -0.162 N 
ATOM     16  N   UNL     1      35.552 -19.606 -20.188  0.00  0.00    -0.051 NA
ATOM     17  N   UNL     1      35.495 -18.910 -22.305  0.00  0.00    -0.108 NA
ATOM     18  N   UNL     1      36.252 -19.037 -21.162  0.00  0.00    -0.025 NA
ATOM     19  C   UNL     1      34.319 -19.413 -22.009  0.00  0.00    +0.211 C 
ENDBRANCH  14  15
ENDBRANCH  12  14
ENDBRANCH   5  11
BRANCH   7  21
ATOM     20  OXT UNL     1      32.234 -22.929 -12.798  0.00  0.00    -0.244 OA
ATOM     21  C   UNL     1      32.800 -23.835 -13.377  0.00  0.00    +0.351 C 
BRANCH  21  22
ATOM     22  O   UNL     1      32.587 -25.153 -13.198  0.00  0.00    -0.476 OA
ATOM     23  H   UNL     1      32.231 -25.464 -12.389  0.00  0.00    +0.295 HD
ENDBRANCH  21  22
ENDBRANCH   7  21
BRANCH   8  24
ATOM     24  C   UNL     1      35.653 -23.357 -12.648  0.00  0.00    +0.088 C 
BRANCH  24  25
ATOM     25  S   UNL     1      35.836 -25.053 -12.073  0.00  0.00    -0.082 S 
BRANCH  25  29
ATOM     26  S   UNL     1      38.725 -24.822 -13.005  0.00  0.00    -0.044 S 
ATOM     27  N   UNL     1      37.087 -26.580 -13.895  0.00  0.00    -0.135 NA
ATOM     28  N   UNL     1      38.277 -26.809 -14.561  0.00  0.00    -0.145 NA
ATOM     29  C   UNL     1      37.201 -25.579 -13.067  0.00  0.00    +0.159 A 
ATOM     30  C   UNL     1      39.214 -25.962 -14.190  0.00  0.00    +0.112 A 
ATOM     31  C   UNL     1      40.597 -25.939 -14.709  0.00  0.00    +0.061 C 
ENDBRANCH  25  29
ENDBRANCH  24  25
ENDBRANCH   8  24
TORSDOF 8
ENDMDL
MODEL 8
REMARK VINA RESULT:      -8.3      2.695      9.609
REMARK  Name = 33255
REMARK  8 active torsions:
REMARK  status: ('A' for Active; 'I' for Inactive)
REMARK    1  A    between atoms: CA_5  and  N_11
REMARK    2  A    between atoms: CA_7  and  C_21
REMARK    3  A    between atoms: C_8  and  C_24
REMARK    4  A    between atoms: C_12  and  C_14
REMARK    5  A    between atoms: C_14  and  N_15
REMARK    6  A    between atoms: C_21  and  O_22
REMARK    7  A    between atoms: C_24  and  S_25
REMARK    8  A    between atoms: S_25  and  C_29
REMARK                            x       y       z     vdW  Elec       q    Type
REMARK                         _______ _______ _______ _____ _____    ______ ____
ROOT
ATOM      1  S   UNL     1      36.963 -20.349 -18.615  0.00  0.00    -0.114 S 
ATOM      2  O   UNL     1      32.718 -21.184 -20.318  0.00  0.00    -0.273 OA
ATOM      3  N   UNL     1      34.750 -21.682 -19.229  0.00  0.00    -0.242 N 
ATOM      4  C   UNL     1      35.992 -21.250 -19.844  0.00  0.00    +0.155 C 
ATOM      5  CA  UNL     1      35.116 -20.396 -20.788  0.00  0.00    +0.178 C 
ATOM      6  C   UNL     1      33.914 -21.147 -20.145  0.00  0.00    +0.251 C 
ATOM      7  CA  UNL     1      34.687 -22.396 -18.076  0.00  0.00    +0.124 C 
ATOM      8  C   UNL     1      35.760 -22.513 -17.257  0.00  0.00    -0.002 C 
ATOM      9  C   UNL     1      37.080 -21.784 -17.492  0.00  0.00    +0.083 C 
ENDROOT
BRANCH   5  11
ATOM     10  O   UNL     1      34.880 -18.359 -22.823  0.00  0.00    -0.273 OA
ATOM     11  N   UNL     1      35.076 -18.949 -20.587  0.00  0.00    -0.295 N 
ATOM     12  C   UNL     1      34.960 -18.040 -21.640  0.00  0.00    +0.245 C 
ATOM     13  H   UNL     1      35.134 -18.599 -19.668  0.00  0.00    +0.150 HD
BRANCH  12  14
ATOM     14  C   UNL     1      34.945 -16.607 -21.153  0.00  0.00    +0.204 C 
BRANCH  14  15
ATOM     15  N   UNL     1      34.285 -15.701 -22.087  0.00  0.00    -0.162 N 
ATOM     16  N   UNL     1      34.929 -15.237 -23.153  0.00  0.00    -0.051 NA
ATOM     17  N   UNL     1      32.848 -14.442 -23.069  0.00  0.00    -0.108 NA
ATOM     18  N   UNL     1      34.039 -14.460 -23.759  0.00  0.00    -0.025 NA
ATOM     19  C   UNL     1      33.028 -15.225 -22.030  0.00  0.00    +0.211 C 
ENDBRANCH  14  15
ENDBRANCH  12  14
ENDBRANCH   5  11
BRANCH   7  21
ATOM     20  OXT UNL     1      32.527 -22.413 -17.082  0.00  0.00    -0.244 OA
ATOM     21  C   UNL     1      33.385 -22.984 -17.725  0.00  0.00    +0.351 C 
BRANCH  21  22
ATOM     22  O   UNL     1      33.309 -24.232 -18.226  0.00  0.00    -0.476 OA
ATOM     23  H   UNL     1      33.924 -24.884 -17.955  0.00  0.00    +0.295 HD
ENDBRANCH  21  22
ENDBRANCH   7  21
BRANCH   8  24
ATOM     24  C   UNL     1      35.793 -23.353 -16.003  0.00  0.00    +0.088 C 
BRANCH  24  25
ATOM     25  S   UNL     1      37.463 -23.357 -15.330  0.00  0.00    -0.082 S 
BRANCH  25  29
ATOM     26  S   UNL     1      35.795 -24.387 -13.002  0.00  0.00    -0.044 S 
ATOM     27  N   UNL     1      37.851 -22.885 -12.715  0.00  0.00    -0.135 NA
ATOM     28  N   UNL     1      37.385 -23.127 -11.435  0.00  0.00    -0.145 NA
ATOM     29  C   UNL     1      37.108 -23.485 -13.602  0.00  0.00    +0.159 A 
ATOM     30  C   UNL     1      36.316 -23.897 -11.443  0.00  0.00    +0.112 A 
ATOM     31  C   UNL     1      35.579 -24.344 -10.243  0.00  0.00    +0.061 C 
ENDBRANCH  25  29
ENDBRANCH  24  25
ENDBRANCH   8  24
TORSDOF 8
ENDMDL
MODEL 9
REMARK VINA RESULT:      -8.3      2.210      9.163
REMARK  Name = 33255
REMARK  8 active torsions:
REMARK  status: ('A' for Active; 'I' for Inactive)
REMARK    1  A    between atoms: CA_5  and  N_11
REMARK    2  A    between atoms: CA_7  and  C_21
REMARK    3  A    between atoms: C_8  and  C_24
REMARK    4  A    between atoms: C_12  and  C_14
REMARK    5  A    between atoms: C_14  and  N_15
REMARK    6  A    between atoms: C_21  and  O_22
REMARK    7  A    between atoms: C_24  and  S_25
REMARK    8  A    between atoms: S_25  and  C_29
REMARK                            x       y       z     vdW  Elec       q    Type
REMARK                         _______ _______ _______ _____ _____    ______ ____
ROOT
ATOM      1  S   UNL     1      37.029 -20.958 -17.837  0.00  0.00    -0.114 S 
ATOM      2  O   UNL     1      32.889 -21.692 -19.821  0.00  0.00    -0.273 OA
ATOM      3  N   UNL     1      34.758 -22.181 -18.470  0.00  0.00    -0.242 N 
ATOM      4  C   UNL     1      36.086 -21.955 -19.013  0.00  0.00    +0.155 C 
ATOM      5  CA  UNL     1      35.384 -21.188 -20.156  0.00  0.00    +0.178 C 
ATOM      6  C   UNL     1      34.063 -21.728 -19.535  0.00  0.00    +0.251 C 
ATOM      7  CA  UNL     1      34.526 -22.700 -17.237  0.00  0.00    +0.124 C 
ATOM      8  C   UNL     1      35.506 -22.776 -16.305  0.00  0.00    -0.002 C 
ATOM      9  C   UNL     1      36.906 -22.205 -16.510  0.00  0.00    +0.083 C 
ENDROOT
BRANCH   5  11
ATOM     10  O   UNL     1      34.486 -19.417 -22.255  0.00  0.00    -0.273 OA
ATOM     11  N   UNL     1      35.467 -19.729 -20.175  0.00  0.00    -0.295 N 
ATOM     12  C   UNL     1      35.004 -18.957 -21.241  0.00  0.00    +0.245 C 
ATOM     13  H   UNL     1      35.869 -19.270 -19.402  0.00  0.00    +0.150 HD
BRANCH  12  14
ATOM     14  C   UNL     1      35.215 -17.477 -21.003  0.00  0.00    +0.204 C 
BRANCH  14  15
ATOM     15  N   UNL     1      34.705 -16.652 -22.094  0.00  0.00    -0.162 N 
ATOM     16  N   UNL     1      35.328 -16.619 -23.268  0.00  0.00    -0.051 NA
ATOM     17  N   UNL     1      33.531 -15.300 -23.279  0.00  0.00    -0.108 NA
ATOM     18  N   UNL     1      34.599 -15.784 -23.999  0.00  0.00    -0.025 NA
ATOM     19  C   UNL     1      33.620 -15.858 -22.094  0.00  0.00    +0.211 C 
ENDBRANCH  14  15
ENDBRANCH  12  14
ENDBRANCH   5  11
BRANCH   7  21
ATOM     20  OXT UNL     1      32.495 -22.703 -16.000  0.00  0.00    -0.244 OA
ATOM     21  C   UNL     1      33.147 -23.116 -16.939  0.00  0.00    +0.351 C 
BRANCH  21  22
ATOM     22  O   UNL     1      32.740 -24.011 -17.860  0.00  0.00    -0.476 OA
ATOM     23  H   UNL     1      32.013 -24.572 -17.678  0.00  0.00    +0.295 HD
ENDBRANCH  21  22
ENDBRANCH   7  21
BRANCH   8  24
ATOM     24  C   UNL     1      35.347 -23.412 -14.945  0.00  0.00    +0.088 C 
BRANCH  24  25
ATOM     25  S   UNL     1      35.205 -25.197 -15.132  0.00  0.00    -0.082 S 
BRANCH  25  29
ATOM     26  S   UNL     1      38.048 -24.617 -14.212  0.00  0.00    -0.044 S 
ATOM     27  N   UNL     1      37.295 -26.883 -15.142  0.00  0.00    -0.135 NA
ATOM     28  N   UNL     1      38.638 -27.030 -14.843  0.00  0.00    -0.145 NA
ATOM     29  C   UNL     1      36.884 -25.679 -14.857  0.00  0.00    +0.159 A 
ATOM     30  C   UNL     1      39.152 -25.922 -14.351  0.00  0.00    +0.112 A 
ATOM     31  C   UNL     1      40.557 -25.748 -13.929  0.00  0.00    +0.061 C 
ENDBRANCH  25  29
ENDBRANCH  24  25
ENDBRANCH   8  24
TORSDOF 8
ENDMDL
