MODEL 1
REMARK VINA RESULT:      -9.0      0.000      0.000
REMARK  Name = 3058751
REMARK  7 active torsions:
REMARK  status: ('A' for Active; 'I' for Inactive)
REMARK    1  A    between atoms: C_1  and  C_2
REMARK    2  A    between atoms: C_1  and  O_8
REMARK    3  A    between atoms: C_1  and  C_19
REMARK    4  A    between atoms: O_8  and  C_9
REMARK    5  A    between atoms: C_12  and  C_18
REMARK    6  A    between atoms: C_19  and  C_20
REMARK    7  A    between atoms: C_20  and  N_21
REMARK                            x       y       z     vdW  Elec       q    Type
REMARK                         _______ _______ _______ _____ _____    ______ ____
ROOT
ATOM      1  C   UNL     1      34.538 -18.191 -22.294  0.00  0.00    +0.186 C 
ENDROOT
BRANCH   1   2
ATOM      2  C   UNL     1      34.476 -19.324 -21.297  0.00  0.00    +0.017 C 
ATOM      3  C   UNL     1      35.654 -19.904 -20.854  0.00  0.00    -0.001 C 
ATOM      4  C   UNL     1      33.242 -19.763 -20.844  0.00  0.00    -0.001 C 
ATOM      5  C   UNL     1      35.597 -20.950 -19.934  0.00  0.00    -0.000 C 
ATOM      6  C   UNL     1      33.185 -20.810 -19.924  0.00  0.00    -0.000 C 
ATOM      7  C   UNL     1      34.363 -21.403 -19.469  0.00  0.00    -0.000 C 
ENDBRANCH   1   2
BRANCH   1   8
ATOM      8  O   UNL     1      35.110 -17.058 -21.638  0.00  0.00    -0.475 OA
BRANCH   8   9
ATOM      9  C   UNL     1      34.362 -15.913 -21.636  0.00  0.00    +0.139 C 
ATOM     10  C   UNL     1      33.460 -15.679 -20.602  0.00  0.00    +0.037 C 
ATOM     11  C   UNL     1      34.506 -14.991 -22.669  0.00  0.00    +0.037 C 
ATOM     12  C   UNL     1      32.836 -13.585 -21.632  0.00  0.00    +0.072 C 
ATOM     13  C   UNL     1      32.696 -14.511 -20.600  0.00  0.00    +0.007 C 
ATOM     14  C   UNL     1      33.741 -13.824 -22.667  0.00  0.00    +0.007 C 
BRANCH  12  18
ATOM     15  F   UNL     1      32.707 -11.233 -22.049  0.00  0.00    -0.166 F 
ATOM     16  F   UNL     1      30.921 -12.400 -22.442  0.00  0.00    -0.166 F 
ATOM     17  F   UNL     1      31.542 -12.023 -20.392  0.00  0.00    -0.166 F 
ATOM     18  C   UNL     1      32.020 -12.337 -21.631  0.00  0.00    +0.419 C 
ENDBRANCH  12  18
ENDBRANCH   8   9
ENDBRANCH   1   8
BRANCH   1  19
ATOM     19  C   UNL     1      35.365 -18.508 -23.550  0.00  0.00    +0.024 C 
BRANCH  19  20
ATOM     20  C   UNL     1      34.545 -18.439 -24.839  0.00  0.00    -0.082 C 
BRANCH  20  21
ATOM     21  N   UNL     1      34.631 -17.105 -25.421  0.00  0.00    +0.381 N 
ATOM     22  H   UNL     1      34.504 -16.406 -24.689  0.00  0.00    -0.089 HD
ATOM     23  H   UNL     1      33.904 -16.994 -26.127  0.00  0.00    -0.089 HD
ATOM     24  H   UNL     1      35.547 -16.981 -25.853  0.00  0.00    -0.089 HD
ENDBRANCH  20  21
ENDBRANCH  19  20
ENDBRANCH   1  19
TORSDOF 7
ENDMDL
MODEL 2
REMARK VINA RESULT:      -8.9      5.237      7.570
REMARK  Name = 3058751
REMARK  7 active torsions:
REMARK  status: ('A' for Active; 'I' for Inactive)
REMARK    1  A    between atoms: C_1  and  C_2
REMARK    2  A    between atoms: C_1  and  O_8
REMARK    3  A    between atoms: C_1  and  C_19
REMARK    4  A    between atoms: O_8  and  C_9
REMARK    5  A    between atoms: C_12  and  C_18
REMARK    6  A    between atoms: C_19  and  C_20
REMARK    7  A    between atoms: C_20  and  N_21
REMARK                            x       y       z     vdW  Elec       q    Type
REMARK                         _______ _______ _______ _____ _____    ______ ____
ROOT
ATOM      1  C   UNL     1      33.877 -23.119 -16.678  0.00  0.00    +0.186 C 
ENDROOT
BRANCH   1   2
ATOM      2  C   UNL     1      35.116 -23.534 -15.920  0.00  0.00    +0.017 C 
ATOM      3  C   UNL     1      36.274 -22.785 -16.051  0.00  0.00    -0.001 C 
ATOM      4  C   UNL     1      35.072 -24.656 -15.109  0.00  0.00    -0.001 C 
ATOM      5  C   UNL     1      37.419 -23.168 -15.352  0.00  0.00    -0.000 C 
ATOM      6  C   UNL     1      36.216 -25.040 -14.409  0.00  0.00    -0.000 C 
ATOM      7  C   UNL     1      37.390 -24.295 -14.532  0.00  0.00    -0.000 C 
ENDBRANCH   1   2
BRANCH   1   8
ATOM      8  O   UNL     1      34.085 -23.417 -18.060  0.00  0.00    -0.475 OA
BRANCH   8   9
ATOM      9  C   UNL     1      34.205 -22.347 -18.903  0.00  0.00    +0.139 C 
ATOM     10  C   UNL     1      33.071 -21.627 -19.270  0.00  0.00    +0.037 C 
ATOM     11  C   UNL     1      35.458 -21.986 -19.390  0.00  0.00    +0.037 C 
ATOM     12  C   UNL     1      34.444 -20.170 -20.621  0.00  0.00    +0.072 C 
ATOM     13  C   UNL     1      33.192 -20.536 -20.130  0.00  0.00    +0.007 C 
ATOM     14  C   UNL     1      35.578 -20.895 -20.251  0.00  0.00    +0.007 C 
BRANCH  12  18
ATOM     15  F   UNL     1      35.847 -18.517 -21.632  0.00  0.00    -0.166 F 
ATOM     16  F   UNL     1      34.206 -19.278 -22.828  0.00  0.00    -0.166 F 
ATOM     17  F   UNL     1      33.804 -17.944 -21.158  0.00  0.00    -0.166 F 
ATOM     18  C   UNL     1      34.574 -19.003 -21.541  0.00  0.00    +0.419 C 
ENDBRANCH  12  18
ENDBRANCH   8   9
ENDBRANCH   1   8
BRANCH   1  19
ATOM     19  C   UNL     1      32.593 -23.820 -16.207  0.00  0.00    +0.024 C 
BRANCH  19  20
ATOM     20  C   UNL     1      31.483 -22.839 -15.824  0.00  0.00    -0.082 C 
BRANCH  20  21
ATOM     21  N   UNL     1      30.474 -22.785 -16.876  0.00  0.00    +0.381 N 
ATOM     22  H   UNL     1      29.948 -23.659 -16.888  0.00  0.00    -0.089 HD
ATOM     23  H   UNL     1      30.930 -22.650 -17.778  0.00  0.00    -0.089 HD
ATOM     24  H   UNL     1      29.838 -22.008 -16.697  0.00  0.00    -0.089 HD
ENDBRANCH  20  21
ENDBRANCH  19  20
ENDBRANCH   1  19
TORSDOF 7
ENDMDL
MODEL 3
REMARK VINA RESULT:      -8.7      4.479      7.020
REMARK  Name = 3058751
REMARK  7 active torsions:
REMARK  status: ('A' for Active; 'I' for Inactive)
REMARK    1  A    between atoms: C_1  and  C_2
REMARK    2  A    between atoms: C_1  and  O_8
REMARK    3  A    between atoms: C_1  and  C_19
REMARK    4  A    between atoms: O_8  and  C_9
REMARK    5  A    between atoms: C_12  and  C_18
REMARK    6  A    between atoms: C_19  and  C_20
REMARK    7  A    between atoms: C_20  and  N_21
REMARK                            x       y       z     vdW  Elec       q    Type
REMARK                         _______ _______ _______ _____ _____    ______ ____
ROOT
ATOM      1  C   UNL     1      34.858 -17.473 -21.873  0.00  0.00    +0.186 C 
ENDROOT
BRANCH   1   2
ATOM      2  C   UNL     1      34.175 -16.132 -21.744  0.00  0.00    +0.017 C 
ATOM      3  C   UNL     1      33.315 -15.907 -20.681  0.00  0.00    -0.001 C 
ATOM      4  C   UNL     1      34.421 -15.152 -22.691  0.00  0.00    -0.001 C 
ATOM      5  C   UNL     1      32.685 -14.669 -20.562  0.00  0.00    -0.000 C 
ATOM      6  C   UNL     1      33.791 -13.913 -22.573  0.00  0.00    -0.000 C 
ATOM      7  C   UNL     1      32.922 -13.672 -21.508  0.00  0.00    -0.000 C 
ENDBRANCH   1   2
BRANCH   1   8
ATOM      8  O   UNL     1      33.845 -18.470 -22.023  0.00  0.00    -0.475 OA
BRANCH   8   9
ATOM      9  C   UNL     1      33.853 -19.490 -21.111  0.00  0.00    +0.139 C 
ATOM     10  C   UNL     1      32.658 -19.909 -20.534  0.00  0.00    +0.037 C 
ATOM     11  C   UNL     1      35.056 -20.099 -20.765  0.00  0.00    +0.037 C 
ATOM     12  C   UNL     1      33.867 -21.562 -19.253  0.00  0.00    +0.072 C 
ATOM     13  C   UNL     1      32.665 -20.949 -19.604  0.00  0.00    +0.007 C 
ATOM     14  C   UNL     1      35.063 -21.137 -19.834  0.00  0.00    +0.007 C 
BRANCH  12  18
ATOM     15  F   UNL     1      34.984 -22.685 -17.461  0.00  0.00    -0.166 F 
ATOM     16  F   UNL     1      32.817 -22.641 -17.393  0.00  0.00    -0.166 F 
ATOM     17  F   UNL     1      33.832 -23.904 -18.845  0.00  0.00    -0.166 F 
ATOM     18  C   UNL     1      33.875 -22.673 -18.258  0.00  0.00    +0.419 C 
ENDBRANCH  12  18
ENDBRANCH   8   9
ENDBRANCH   1   8
BRANCH   1  19
ATOM     19  C   UNL     1      35.829 -17.569 -23.059  0.00  0.00    +0.024 C 
BRANCH  19  20
ATOM     20  C   UNL     1      35.361 -18.546 -24.139  0.00  0.00    -0.082 C 
BRANCH  20  21
ATOM     21  N   UNL     1      34.461 -17.876 -25.070  0.00  0.00    +0.381 N 
ATOM     22  H   UNL     1      34.646 -16.874 -25.060  0.00  0.00    -0.089 HD
ATOM     23  H   UNL     1      33.495 -18.047 -24.791  0.00  0.00    -0.089 HD
ATOM     24  H   UNL     1      34.613 -18.240 -26.011  0.00  0.00    -0.089 HD
ENDBRANCH  20  21
ENDBRANCH  19  20
ENDBRANCH   1  19
TORSDOF 7
ENDMDL
MODEL 4
REMARK VINA RESULT:      -8.7      6.955      9.524
REMARK  Name = 3058751
REMARK  7 active torsions:
REMARK  status: ('A' for Active; 'I' for Inactive)
REMARK    1  A    between atoms: C_1  and  C_2
REMARK    2  A    between atoms: C_1  and  O_8
REMARK    3  A    between atoms: C_1  and  C_19
REMARK    4  A    between atoms: O_8  and  C_9
REMARK    5  A    between atoms: C_12  and  C_18
REMARK    6  A    between atoms: C_19  and  C_20
REMARK    7  A    between atoms: C_20  and  N_21
REMARK                            x       y       z     vdW  Elec       q    Type
REMARK                         _______ _______ _______ _____ _____    ______ ____
ROOT
ATOM      1  C   UNL     1      35.162 -21.685 -18.294  0.00  0.00    +0.186 C 
ENDROOT
BRANCH   1   2
ATOM      2  C   UNL     1      34.742 -20.935 -19.535  0.00  0.00    +0.017 C 
ATOM      3  C   UNL     1      33.393 -20.771 -19.806  0.00  0.00    -0.001 C 
ATOM      4  C   UNL     1      35.714 -20.424 -20.381  0.00  0.00    -0.001 C 
ATOM      5  C   UNL     1      33.005 -20.079 -20.952  0.00  0.00    -0.000 C 
ATOM      6  C   UNL     1      35.325 -19.731 -21.528  0.00  0.00    -0.000 C 
ATOM      7  C   UNL     1      33.971 -19.559 -21.813  0.00  0.00    -0.000 C 
ENDBRANCH   1   2
BRANCH   1   8
ATOM      8  O   UNL     1      34.498 -22.950 -18.297  0.00  0.00    -0.475 OA
BRANCH   8   9
ATOM      9  C   UNL     1      33.699 -23.222 -17.222  0.00  0.00    +0.139 C 
ATOM     10  C   UNL     1      32.322 -23.043 -17.323  0.00  0.00    +0.037 C 
ATOM     11  C   UNL     1      34.267 -23.674 -16.034  0.00  0.00    +0.037 C 
ATOM     12  C   UNL     1      32.069 -23.772 -15.033  0.00  0.00    +0.072 C 
ATOM     13  C   UNL     1      31.505 -23.320 -16.226  0.00  0.00    +0.007 C 
ATOM     14  C   UNL     1      33.450 -23.950 -14.937  0.00  0.00    +0.007 C 
BRANCH  12  18
ATOM     15  F   UNL     1      29.869 -24.138 -14.171  0.00  0.00    -0.166 F 
ATOM     16  F   UNL     1      31.482 -25.258 -13.252  0.00  0.00    -0.166 F 
ATOM     17  F   UNL     1      31.295 -23.123 -12.881  0.00  0.00    -0.166 F 
ATOM     18  C   UNL     1      31.197 -24.068 -13.861  0.00  0.00    +0.419 C 
ENDBRANCH  12  18
ENDBRANCH   8   9
ENDBRANCH   1   8
BRANCH   1  19
ATOM     19  C   UNL     1      36.677 -21.919 -18.188  0.00  0.00    +0.024 C 
BRANCH  19  20
ATOM     20  C   UNL     1      37.230 -21.640 -16.789  0.00  0.00    -0.082 C 
BRANCH  20  21
ATOM     21  N   UNL     1      37.806 -22.855 -16.223  0.00  0.00    +0.381 N 
ATOM     22  H   UNL     1      37.099 -23.344 -15.675  0.00  0.00    -0.089 HD
ATOM     23  H   UNL     1      38.593 -22.610 -15.622  0.00  0.00    -0.089 HD
ATOM     24  H   UNL     1      38.130 -23.460 -16.977  0.00  0.00    -0.089 HD
ENDBRANCH  20  21
ENDBRANCH  19  20
ENDBRANCH   1  19
TORSDOF 7
ENDMDL
MODEL 5
REMARK VINA RESULT:      -8.6      5.691      8.075
REMARK  Name = 3058751
REMARK  7 active torsions:
REMARK  status: ('A' for Active; 'I' for Inactive)
REMARK    1  A    between atoms: C_1  and  C_2
REMARK    2  A    between atoms: C_1  and  O_8
REMARK    3  A    between atoms: C_1  and  C_19
REMARK    4  A    between atoms: O_8  and  C_9
REMARK    5  A    between atoms: C_12  and  C_18
REMARK    6  A    between atoms: C_19  and  C_20
REMARK    7  A    between atoms: C_20  and  N_21
REMARK                            x       y       z     vdW  Elec       q    Type
REMARK                         _______ _______ _______ _____ _____    ______ ____
ROOT
ATOM      1  C   UNL     1      34.586 -22.978 -16.157  0.00  0.00    +0.186 C 
ENDROOT
BRANCH   1   2
ATOM      2  C   UNL     1      35.744 -23.796 -15.636  0.00  0.00    +0.017 C 
ATOM      3  C   UNL     1      35.514 -25.084 -15.181  0.00  0.00    -0.001 C 
ATOM      4  C   UNL     1      37.014 -23.243 -15.624  0.00  0.00    -0.001 C 
ATOM      5  C   UNL     1      36.583 -25.840 -14.699  0.00  0.00    -0.000 C 
ATOM      6  C   UNL     1      38.083 -23.999 -15.143  0.00  0.00    -0.000 C 
ATOM      7  C   UNL     1      37.867 -25.298 -14.680  0.00  0.00    -0.000 C 
ENDBRANCH   1   2
BRANCH   1   8
ATOM      8  O   UNL     1      34.358 -23.353 -17.517  0.00  0.00    -0.475 OA
BRANCH   8   9
ATOM      9  C   UNL     1      34.507 -22.369 -18.455  0.00  0.00    +0.139 C 
ATOM     10  C   UNL     1      33.384 -21.837 -19.081  0.00  0.00    +0.037 C 
ATOM     11  C   UNL     1      35.780 -21.908 -18.778  0.00  0.00    +0.037 C 
ATOM     12  C   UNL     1      34.807 -20.368 -20.366  0.00  0.00    +0.072 C 
ATOM     13  C   UNL     1      33.534 -20.833 -20.038  0.00  0.00    +0.007 C 
ATOM     14  C   UNL     1      35.930 -20.905 -19.736  0.00  0.00    +0.007 C 
BRANCH  12  18
ATOM     15  F   UNL     1      34.293 -18.147 -21.089  0.00  0.00    -0.166 F 
ATOM     16  F   UNL     1      36.266 -18.906 -21.573  0.00  0.00    -0.166 F 
ATOM     17  F   UNL     1      34.521 -19.672 -22.621  0.00  0.00    -0.166 F 
ATOM     18  C   UNL     1      34.969 -19.295 -21.389  0.00  0.00    +0.419 C 
ENDBRANCH  12  18
ENDBRANCH   8   9
ENDBRANCH   1   8
BRANCH   1  19
ATOM     19  C   UNL     1      33.283 -23.164 -15.365  0.00  0.00    +0.024 C 
BRANCH  19  20
ATOM     20  C   UNL     1      32.092 -23.534 -16.250  0.00  0.00    -0.082 C 
BRANCH  20  21
ATOM     21  N   UNL     1      31.024 -24.113 -15.443  0.00  0.00    +0.381 N 
ATOM     22  H   UNL     1      31.189 -23.904 -14.459  0.00  0.00    -0.089 HD
ATOM     23  H   UNL     1      31.007 -25.124 -15.577  0.00  0.00    -0.089 HD
ATOM     24  H   UNL     1      30.129 -23.717 -15.729  0.00  0.00    -0.089 HD
ENDBRANCH  20  21
ENDBRANCH  19  20
ENDBRANCH   1  19
TORSDOF 7
ENDMDL
MODEL 6
REMARK VINA RESULT:      -8.6      4.346      6.875
REMARK  Name = 3058751
REMARK  7 active torsions:
REMARK  status: ('A' for Active; 'I' for Inactive)
REMARK    1  A    between atoms: C_1  and  C_2
REMARK    2  A    between atoms: C_1  and  O_8
REMARK    3  A    between atoms: C_1  and  C_19
REMARK    4  A    between atoms: O_8  and  C_9
REMARK    5  A    between atoms: C_12  and  C_18
REMARK    6  A    between atoms: C_19  and  C_20
REMARK    7  A    between atoms: C_20  and  N_21
REMARK                            x       y       z     vdW  Elec       q    Type
REMARK                         _______ _______ _______ _____ _____    ______ ____
ROOT
ATOM      1  C   UNL     1      34.632 -16.322 -22.719  0.00  0.00    +0.186 C 
ENDROOT
BRANCH   1   2
ATOM      2  C   UNL     1      33.758 -15.184 -22.246  0.00  0.00    +0.017 C 
ATOM      3  C   UNL     1      33.318 -14.241 -23.160  0.00  0.00    -0.001 C 
ATOM      4  C   UNL     1      33.413 -15.106 -20.906  0.00  0.00    -0.001 C 
ATOM      5  C   UNL     1      32.511 -13.190 -22.723  0.00  0.00    -0.000 C 
ATOM      6  C   UNL     1      32.606 -14.055 -20.469  0.00  0.00    -0.000 C 
ATOM      7  C   UNL     1      32.156 -13.097 -21.378  0.00  0.00    -0.000 C 
ENDBRANCH   1   2
BRANCH   1   8
ATOM      8  O   UNL     1      33.910 -17.541 -22.530  0.00  0.00    -0.475 OA
BRANCH   8   9
ATOM      9  C   UNL     1      34.497 -18.479 -21.727  0.00  0.00    +0.139 C 
ATOM     10  C   UNL     1      35.872 -18.444 -21.517  0.00  0.00    +0.037 C 
ATOM     11  C   UNL     1      33.716 -19.464 -21.129  0.00  0.00    +0.037 C 
ATOM     12  C   UNL     1      35.696 -20.391 -20.097  0.00  0.00    +0.072 C 
ATOM     13  C   UNL     1      36.473 -19.402 -20.699  0.00  0.00    +0.007 C 
ATOM     14  C   UNL     1      34.317 -20.422 -20.312  0.00  0.00    +0.007 C 
BRANCH  12  18
ATOM     15  F   UNL     1      35.489 -22.413 -18.837  0.00  0.00    -0.166 F 
ATOM     16  F   UNL     1      37.392 -22.054 -19.812  0.00  0.00    -0.166 F 
ATOM     17  F   UNL     1      36.830 -20.884 -18.067  0.00  0.00    -0.166 F 
ATOM     18  C   UNL     1      36.337 -21.415 -19.223  0.00  0.00    +0.419 C 
ENDBRANCH  12  18
ENDBRANCH   8   9
ENDBRANCH   1   8
BRANCH   1  19
ATOM     19  C   UNL     1      35.051 -16.216 -24.194  0.00  0.00    +0.024 C 
BRANCH  19  20
ATOM     20  C   UNL     1      34.110 -16.966 -25.138  0.00  0.00    -0.082 C 
BRANCH  20  21
ATOM     21  N   UNL     1      34.478 -18.375 -25.202  0.00  0.00    +0.381 N 
ATOM     22  H   UNL     1      34.996 -18.631 -24.362  0.00  0.00    -0.089 HD
ATOM     23  H   UNL     1      35.061 -18.538 -26.023  0.00  0.00    -0.089 HD
ATOM     24  H   UNL     1      33.634 -18.944 -25.267  0.00  0.00    -0.089 HD
ENDBRANCH  20  21
ENDBRANCH  19  20
ENDBRANCH   1  19
TORSDOF 7
ENDMDL
MODEL 7
REMARK VINA RESULT:      -8.6      4.590      7.144
REMARK  Name = 3058751
REMARK  7 active torsions:
REMARK  status: ('A' for Active; 'I' for Inactive)
REMARK    1  A    between atoms: C_1  and  C_2
REMARK    2  A    between atoms: C_1  and  O_8
REMARK    3  A    between atoms: C_1  and  C_19
REMARK    4  A    between atoms: O_8  and  C_9
REMARK    5  A    between atoms: C_12  and  C_18
REMARK    6  A    between atoms: C_19  and  C_20
REMARK    7  A    between atoms: C_20  and  N_21
REMARK                            x       y       z     vdW  Elec       q    Type
REMARK                         _______ _______ _______ _____ _____    ______ ____
ROOT
ATOM      1  C   UNL     1      34.185 -16.328 -22.182  0.00  0.00    +0.186 C 
ENDROOT
BRANCH   1   2
ATOM      2  C   UNL     1      33.899 -15.837 -23.581  0.00  0.00    +0.017 C 
ATOM      3  C   UNL     1      34.196 -16.654 -24.661  0.00  0.00    -0.001 C 
ATOM      4  C   UNL     1      33.347 -14.579 -23.760  0.00  0.00    -0.001 C 
ATOM      5  C   UNL     1      33.932 -16.200 -25.953  0.00  0.00    -0.000 C 
ATOM      6  C   UNL     1      33.084 -14.125 -25.053  0.00  0.00    -0.000 C 
ATOM      7  C   UNL     1      33.377 -14.936 -26.149  0.00  0.00    -0.000 C 
ENDBRANCH   1   2
BRANCH   1   8
ATOM      8  O   UNL     1      35.312 -17.204 -22.243  0.00  0.00    -0.475 OA
BRANCH   8   9
ATOM      9  C   UNL     1      35.226 -18.360 -21.519  0.00  0.00    +0.139 C 
ATOM     10  C   UNL     1      33.979 -18.923 -21.262  0.00  0.00    +0.037 C 
ATOM     11  C   UNL     1      36.384 -18.965 -21.041  0.00  0.00    +0.037 C 
ATOM     12  C   UNL     1      35.047 -20.713 -20.041  0.00  0.00    +0.072 C 
ATOM     13  C   UNL     1      33.889 -20.102 -20.523  0.00  0.00    +0.007 C 
ATOM     14  C   UNL     1      36.294 -20.144 -20.301  0.00  0.00    +0.007 C 
BRANCH  12  18
ATOM     15  F   UNL     1      33.841 -22.040 -18.459  0.00  0.00    -0.166 F 
ATOM     16  F   UNL     1      34.907 -23.101 -20.022  0.00  0.00    -0.166 F 
ATOM     17  F   UNL     1      36.012 -22.146 -18.409  0.00  0.00    -0.166 F 
ATOM     18  C   UNL     1      34.952 -21.973 -19.250  0.00  0.00    +0.419 C 
ENDBRANCH  12  18
ENDBRANCH   8   9
ENDBRANCH   1   8
BRANCH   1  19
ATOM     19  C   UNL     1      34.481 -15.206 -21.174  0.00  0.00    +0.024 C 
BRANCH  19  20
ATOM     20  C   UNL     1      33.287 -14.875 -20.278  0.00  0.00    -0.082 C 
BRANCH  20  21
ATOM     21  N   UNL     1      32.183 -15.788 -20.553  0.00  0.00    +0.381 N 
ATOM     22  H   UNL     1      31.683 -15.478 -21.385  0.00  0.00    -0.089 HD
ATOM     23  H   UNL     1      31.544 -15.798 -19.757  0.00  0.00    -0.089 HD
ATOM     24  H   UNL     1      32.549 -16.727 -20.706  0.00  0.00    -0.089 HD
ENDBRANCH  20  21
ENDBRANCH  19  20
ENDBRANCH   1  19
TORSDOF 7
ENDMDL
MODEL 8
REMARK VINA RESULT:      -8.5      4.586      7.196
REMARK  Name = 3058751
REMARK  7 active torsions:
REMARK  status: ('A' for Active; 'I' for Inactive)
REMARK    1  A    between atoms: C_1  and  C_2
REMARK    2  A    between atoms: C_1  and  O_8
REMARK    3  A    between atoms: C_1  and  C_19
REMARK    4  A    between atoms: O_8  and  C_9
REMARK    5  A    between atoms: C_12  and  C_18
REMARK    6  A    between atoms: C_19  and  C_20
REMARK    7  A    between atoms: C_20  and  N_21
REMARK                            x       y       z     vdW  Elec       q    Type
REMARK                         _______ _______ _______ _____ _____    ______ ____
ROOT
ATOM      1  C   UNL     1      34.186 -16.338 -22.160  0.00  0.00    +0.186 C 
ENDROOT
BRANCH   1   2
ATOM      2  C   UNL     1      33.902 -15.860 -23.564  0.00  0.00    +0.017 C 
ATOM      3  C   UNL     1      33.331 -14.611 -23.754  0.00  0.00    -0.001 C 
ATOM      4  C   UNL     1      34.218 -16.678 -24.637  0.00  0.00    -0.001 C 
ATOM      5  C   UNL     1      33.069 -14.170 -25.050  0.00  0.00    -0.000 C 
ATOM      6  C   UNL     1      33.956 -16.236 -25.933  0.00  0.00    -0.000 C 
ATOM      7  C   UNL     1      33.381 -14.982 -26.140  0.00  0.00    -0.000 C 
ENDBRANCH   1   2
BRANCH   1   8
ATOM      8  O   UNL     1      35.293 -17.240 -22.217  0.00  0.00    -0.475 OA
BRANCH   8   9
ATOM      9  C   UNL     1      35.178 -18.394 -21.492  0.00  0.00    +0.139 C 
ATOM     10  C   UNL     1      36.323 -19.039 -21.035  0.00  0.00    +0.037 C 
ATOM     11  C   UNL     1      33.917 -18.916 -21.218  0.00  0.00    +0.037 C 
ATOM     12  C   UNL     1      34.946 -20.744 -20.019  0.00  0.00    +0.072 C 
ATOM     13  C   UNL     1      36.207 -20.217 -20.296  0.00  0.00    +0.007 C 
ATOM     14  C   UNL     1      33.801 -20.094 -20.480  0.00  0.00    +0.007 C 
BRANCH  12  18
ATOM     15  F   UNL     1      33.661 -22.088 -18.515  0.00  0.00    -0.166 F 
ATOM     16  F   UNL     1      34.850 -23.135 -19.995  0.00  0.00    -0.166 F 
ATOM     17  F   UNL     1      35.825 -22.152 -18.316  0.00  0.00    -0.166 F 
ATOM     18  C   UNL     1      34.821 -22.003 -19.229  0.00  0.00    +0.419 C 
ENDBRANCH  12  18
ENDBRANCH   8   9
ENDBRANCH   1   8
BRANCH   1  19
ATOM     19  C   UNL     1      34.514 -15.210 -21.170  0.00  0.00    +0.024 C 
BRANCH  19  20
ATOM     20  C   UNL     1      33.318 -14.805 -20.306  0.00  0.00    -0.082 C 
BRANCH  20  21
ATOM     21  N   UNL     1      32.226 -15.755 -20.480  0.00  0.00    +0.381 N 
ATOM     22  H   UNL     1      31.382 -15.389 -20.041  0.00  0.00    -0.089 HD
ATOM     23  H   UNL     1      32.476 -16.644 -20.046  0.00  0.00    -0.089 HD
ATOM     24  H   UNL     1      32.056 -15.899 -21.476  0.00  0.00    -0.089 HD
ENDBRANCH  20  21
ENDBRANCH  19  20
ENDBRANCH   1  19
TORSDOF 7
ENDMDL
MODEL 9
REMARK VINA RESULT:      -8.4      3.957      5.736
REMARK  Name = 3058751
REMARK  7 active torsions:
REMARK  status: ('A' for Active; 'I' for Inactive)
REMARK    1  A    between atoms: C_1  and  C_2
REMARK    2  A    between atoms: C_1  and  O_8
REMARK    3  A    between atoms: C_1  and  C_19
REMARK    4  A    between atoms: O_8  and  C_9
REMARK    5  A    between atoms: C_12  and  C_18
REMARK    6  A    between atoms: C_19  and  C_20
REMARK    7  A    between atoms: C_20  and  N_21
REMARK                            x       y       z     vdW  Elec       q    Type
REMARK                         _______ _______ _______ _____ _____    ______ ____
ROOT
ATOM      1  C   UNL     1      33.538 -13.719 -23.029  0.00  0.00    +0.186 C 
ENDROOT
BRANCH   1   2
ATOM      2  C   UNL     1      34.044 -15.055 -23.518  0.00  0.00    +0.017 C 
ATOM      3  C   UNL     1      34.784 -15.855 -22.662  0.00  0.00    -0.001 C 
ATOM      4  C   UNL     1      33.760 -15.455 -24.814  0.00  0.00    -0.001 C 
ATOM      5  C   UNL     1      35.252 -17.089 -23.114  0.00  0.00    -0.000 C 
ATOM      6  C   UNL     1      34.228 -16.689 -25.266  0.00  0.00    -0.000 C 
ATOM      7  C   UNL     1      34.974 -17.506 -24.415  0.00  0.00    -0.000 C 
ENDBRANCH   1   2
BRANCH   1   8
ATOM      8  O   UNL     1      33.223 -12.921 -24.173  0.00  0.00    -0.475 OA
BRANCH   8   9
ATOM      9  C   UNL     1      33.522 -11.589 -24.088  0.00  0.00    +0.139 C 
ATOM     10  C   UNL     1      32.733 -10.753 -23.304  0.00  0.00    +0.037 C 
ATOM     11  C   UNL     1      34.611 -11.079 -24.789  0.00  0.00    +0.037 C 
ATOM     12  C   UNL     1      34.126  -8.878 -23.917  0.00  0.00    +0.072 C 
ATOM     13  C   UNL     1      33.036  -9.394 -23.217  0.00  0.00    +0.007 C 
ATOM     14  C   UNL     1      34.914  -9.720 -24.703  0.00  0.00    +0.007 C 
BRANCH  12  18
ATOM     15  F   UNL     1      34.633  -6.828 -25.040  0.00  0.00    -0.166 F 
ATOM     16  F   UNL     1      33.481  -6.685 -23.208  0.00  0.00    -0.166 F 
ATOM     17  F   UNL     1      35.596  -7.186 -23.124  0.00  0.00    -0.166 F 
ATOM     18  C   UNL     1      34.450  -7.425 -23.825  0.00  0.00    +0.419 C 
ENDBRANCH  12  18
ENDBRANCH   8   9
ENDBRANCH   1   8
BRANCH   1  19
ATOM     19  C   UNL     1      32.294 -13.812 -22.131  0.00  0.00    +0.024 C 
BRANCH  19  20
ATOM     20  C   UNL     1      32.595 -13.525 -20.660  0.00  0.00    -0.082 C 
BRANCH  20  21
ATOM     21  N   UNL     1      31.877 -12.334 -20.221  0.00  0.00    +0.381 N 
ATOM     22  H   UNL     1      31.287 -12.566 -19.423  0.00  0.00    -0.089 HD
ATOM     23  H   UNL     1      31.295 -11.987 -20.984  0.00  0.00    -0.089 HD
ATOM     24  H   UNL     1      32.546 -11.614 -19.950  0.00  0.00    -0.089 HD
ENDBRANCH  20  21
ENDBRANCH  19  20
ENDBRANCH   1  19
TORSDOF 7
ENDMDL
