MODEL 1
REMARK VINA RESULT:      -8.5      0.000      0.000
REMARK  Name = 6021
REMARK  5 active torsions:
REMARK  status: ('A' for Active; 'I' for Inactive)
REMARK    1  A    between atoms: C2*_2  and  O2*_17
REMARK    2  A    between atoms: C1*_3  and  N9_7
REMARK    3  A    between atoms: C3*_4  and  O3*_19
REMARK    4  A    between atoms: C4*_5  and  C5*_21
REMARK    5  A    between atoms: C5*_21  and  O5*_22
REMARK                            x       y       z     vdW  Elec       q    Type
REMARK                         _______ _______ _______ _____ _____    ______ ____
ROOT
ATOM      1  O4* I   A   1      37.553 -23.243 -13.440  0.00  0.00    -0.336 OA
ATOM      2  C2* I   A   1      35.891 -24.791 -12.766  0.00  0.00    +0.183 C 
ATOM      3  C1* I   A   1      36.125 -23.420 -13.384  0.00  0.00    +0.209 C 
ATOM      4  C3* I   A   1      37.046 -24.881 -11.788  0.00  0.00    +0.171 C 
ATOM      5  C4* I   A   1      38.176 -24.204 -12.556  0.00  0.00    +0.175 C 
ENDROOT
BRANCH   3   7
ATOM      6  O6  I   A   1      32.870 -22.876 -18.344  0.00  0.00    -0.221 OA
ATOM      7  N9  I   A   1      35.556 -23.264 -14.721  0.00  0.00    -0.210 NA
ATOM      8  N3  I   A   1      33.158 -23.371 -14.318  0.00  0.00    -0.259 NA
ATOM      9  N7  I   A   1      35.467 -22.990 -16.948  0.00  0.00    -0.242 NA
ATOM     10  N1  I   A   1      31.806 -23.155 -16.301  0.00  0.00    -0.183 NA
ATOM     11  C4  I   A   1      34.250 -23.251 -15.078  0.00  0.00    +0.173 C 
ATOM     12  C8  I   A   1      36.259 -23.103 -15.895  0.00  0.00    +0.205 C 
ATOM     13  C5  I   A   1      34.206 -23.083 -16.434  0.00  0.00    +0.167 C 
ATOM     14  C6  I   A   1      32.931 -23.026 -17.129  0.00  0.00    +0.168 C 
ATOM     15  C2  I   A   1      31.965 -23.312 -15.014  0.00  0.00    +0.211 C 
ATOM     16  H3  I   A   1      33.198 -23.491 -13.342  0.00  0.00    +0.127 HD
ENDBRANCH   3   7
BRANCH   2  17
ATOM     17  O2* I   A   1      34.627 -24.878 -12.141  0.00  0.00    -0.378 OA
ATOM     18  H2* I   A   1      34.200 -25.713 -12.389  0.00  0.00    +0.211 HD
ENDBRANCH   2  17
BRANCH   4  19
ATOM     19  O3* I   A   1      36.747 -24.105 -10.628  0.00  0.00    -0.379 OA
ATOM     20  H3* I   A   1      37.008 -24.596  -9.833  0.00  0.00    +0.211 HD
ENDBRANCH   4  19
BRANCH   5  21
ATOM     21  C5* I   A   1      38.987 -25.178 -13.400  0.00  0.00    +0.169 C 
BRANCH  21  22
ATOM     22  O5* I   A   1      39.294 -24.559 -14.637  0.00  0.00    -0.379 OA
ATOM     23  H5* I   A   1      39.007 -23.632 -14.615  0.00  0.00    +0.211 HD
ENDBRANCH  21  22
ENDBRANCH   5  21
TORSDOF 5
ENDMDL
MODEL 2
REMARK VINA RESULT:      -8.5      6.111      9.608
REMARK  Name = 6021
REMARK  5 active torsions:
REMARK  status: ('A' for Active; 'I' for Inactive)
REMARK    1  A    between atoms: C2*_2  and  O2*_17
REMARK    2  A    between atoms: C1*_3  and  N9_7
REMARK    3  A    between atoms: C3*_4  and  O3*_19
REMARK    4  A    between atoms: C4*_5  and  C5*_21
REMARK    5  A    between atoms: C5*_21  and  O5*_22
REMARK                            x       y       z     vdW  Elec       q    Type
REMARK                         _______ _______ _______ _____ _____    ______ ____
ROOT
ATOM      1  O4* I   A   1      34.902 -17.230 -20.669  0.00  0.00    -0.336 OA
ATOM      2  C2* I   A   1      34.154 -17.929 -22.805  0.00  0.00    +0.183 C 
ATOM      3  C1* I   A   1      34.889 -18.370 -21.548  0.00  0.00    +0.209 C 
ATOM      4  C3* I   A   1      34.572 -16.475 -22.903  0.00  0.00    +0.171 C 
ATOM      5  C4* I   A   1      34.596 -16.045 -21.440  0.00  0.00    +0.175 C 
ENDROOT
BRANCH   3   7
ATOM      6  O6  I   A   1      33.365 -23.194 -18.401  0.00  0.00    -0.221 OA
ATOM      7  N9  I   A   1      34.275 -19.510 -20.868  0.00  0.00    -0.210 NA
ATOM      8  N3  I   A   1      36.141 -20.502 -19.658  0.00  0.00    -0.259 NA
ATOM      9  N7  I   A   1      32.694 -20.963 -20.212  0.00  0.00    -0.242 NA
ATOM     10  N1  I   A   1      35.564 -22.457 -18.374  0.00  0.00    -0.183 NA
ATOM     11  C4  I   A   1      34.867 -20.414 -20.053  0.00  0.00    +0.173 C 
ATOM     12  C8  I   A   1      32.952 -19.886 -20.936  0.00  0.00    +0.205 C 
ATOM     13  C5  I   A   1      33.898 -21.294 -19.658  0.00  0.00    +0.167 C 
ATOM     14  C6  I   A   1      34.219 -22.395 -18.766  0.00  0.00    +0.168 C 
ATOM     15  C2  I   A   1      36.408 -21.561 -18.812  0.00  0.00    +0.211 C 
ATOM     16  H3  I   A   1      36.833 -19.864 -19.947  0.00  0.00    +0.127 HD
ENDBRANCH   3   7
BRANCH   2  17
ATOM     17  O2* I   A   1      34.535 -18.691 -23.932  0.00  0.00    -0.378 OA
ATOM     18  H2* I   A   1      33.741 -18.978 -24.412  0.00  0.00    +0.211 HD
ENDBRANCH   2  17
BRANCH   4  19
ATOM     19  O3* I   A   1      35.897 -16.395 -23.428  0.00  0.00    -0.379 OA
ATOM     20  H3* I   A   1      35.933 -16.848 -24.285  0.00  0.00    +0.211 HD
ENDBRANCH   4  19
BRANCH   5  21
ATOM     21  C5* I   A   1      33.260 -15.493 -20.962  0.00  0.00    +0.169 C 
BRANCH  21  22
ATOM     22  O5* I   A   1      32.629 -14.832 -22.044  0.00  0.00    -0.379 OA
ATOM     23  H5* I   A   1      32.630 -15.412 -22.823  0.00  0.00    +0.211 HD
ENDBRANCH  21  22
ENDBRANCH   5  21
TORSDOF 5
ENDMDL
MODEL 3
REMARK VINA RESULT:      -8.3      1.803      2.531
REMARK  Name = 6021
REMARK  5 active torsions:
REMARK  status: ('A' for Active; 'I' for Inactive)
REMARK    1  A    between atoms: C2*_2  and  O2*_17
REMARK    2  A    between atoms: C1*_3  and  N9_7
REMARK    3  A    between atoms: C3*_4  and  O3*_19
REMARK    4  A    between atoms: C4*_5  and  C5*_21
REMARK    5  A    between atoms: C5*_21  and  O5*_22
REMARK                            x       y       z     vdW  Elec       q    Type
REMARK                         _______ _______ _______ _____ _____    ______ ____
ROOT
ATOM      1  O4* I   A   1      35.603 -24.663 -12.550  0.00  0.00    -0.336 OA
ATOM      2  C2* I   A   1      37.080 -24.612 -14.402  0.00  0.00    +0.183 C 
ATOM      3  C1* I   A   1      35.685 -25.014 -13.944  0.00  0.00    +0.209 C 
ATOM      4  C3* I   A   1      37.896 -24.884 -13.153  0.00  0.00    +0.171 C 
ATOM      5  C4* I   A   1      36.942 -24.458 -12.042  0.00  0.00    +0.175 C 
ENDROOT
BRANCH   3   7
ATOM      6  O6  I   A   1      30.645 -22.817 -16.240  0.00  0.00    -0.221 OA
ATOM      7  N9  I   A   1      34.606 -24.360 -14.681  0.00  0.00    -0.210 NA
ATOM      8  N3  I   A   1      32.610 -25.055 -13.471  0.00  0.00    -0.259 NA
ATOM      9  N7  I   A   1      33.582 -23.109 -16.240  0.00  0.00    -0.242 NA
ATOM     10  N1  I   A   1      30.550 -24.187 -14.370  0.00  0.00    -0.183 NA
ATOM     11  C4  I   A   1      33.275 -24.410 -14.435  0.00  0.00    +0.173 C 
ATOM     12  C8  I   A   1      34.743 -23.556 -15.792  0.00  0.00    +0.205 C 
ATOM     13  C5  I   A   1      32.661 -23.646 -15.388  0.00  0.00    +0.167 C 
ATOM     14  C6  I   A   1      31.215 -23.497 -15.394  0.00  0.00    +0.168 C 
ATOM     15  C2  I   A   1      31.239 -24.889 -13.511  0.00  0.00    +0.211 C 
ATOM     16  H3  I   A   1      33.061 -25.603 -12.789  0.00  0.00    +0.127 HD
ENDBRANCH   3   7
BRANCH   2  17
ATOM     17  O2* I   A   1      37.506 -25.367 -15.518  0.00  0.00    -0.378 OA
ATOM     18  H2* I   A   1      38.019 -26.132 -15.214  0.00  0.00    +0.211 HD
ENDBRANCH   2  17
BRANCH   4  19
ATOM     19  O3* I   A   1      38.137 -26.287 -13.040  0.00  0.00    -0.379 OA
ATOM     20  H3* I   A   1      38.515 -26.481 -12.168  0.00  0.00    +0.211 HD
ENDBRANCH   4  19
BRANCH   5  21
ATOM     21  C5* I   A   1      37.092 -22.991 -11.662  0.00  0.00    +0.169 C 
BRANCH  21  22
ATOM     22  O5* I   A   1      38.472 -22.675 -11.610  0.00  0.00    -0.379 OA
ATOM     23  H5* I   A   1      38.966 -23.286 -12.181  0.00  0.00    +0.211 HD
ENDBRANCH  21  22
ENDBRANCH   5  21
TORSDOF 5
ENDMDL
MODEL 4
REMARK VINA RESULT:      -8.3      6.379      9.612
REMARK  Name = 6021
REMARK  5 active torsions:
REMARK  status: ('A' for Active; 'I' for Inactive)
REMARK    1  A    between atoms: C2*_2  and  O2*_17
REMARK    2  A    between atoms: C1*_3  and  N9_7
REMARK    3  A    between atoms: C3*_4  and  O3*_19
REMARK    4  A    between atoms: C4*_5  and  C5*_21
REMARK    5  A    between atoms: C5*_21  and  O5*_22
REMARK                            x       y       z     vdW  Elec       q    Type
REMARK                         _______ _______ _______ _____ _____    ______ ____
ROOT
ATOM      1  O4* I   A   1      35.252 -16.863 -20.681  0.00  0.00    -0.336 OA
ATOM      2  C2* I   A   1      34.898 -17.888 -22.787  0.00  0.00    +0.183 C 
ATOM      3  C1* I   A   1      35.770 -17.896 -21.540  0.00  0.00    +0.209 C 
ATOM      4  C3* I   A   1      34.575 -16.412 -22.918  0.00  0.00    +0.171 C 
ATOM      5  C4* I   A   1      34.412 -15.984 -21.464  0.00  0.00    +0.175 C 
ENDROOT
BRANCH   3   7
ATOM      6  O6  I   A   1      34.745 -23.041 -18.716  0.00  0.00    -0.221 OA
ATOM      7  N9  I   A   1      35.778 -19.172 -20.827  0.00  0.00    -0.210 NA
ATOM      8  N3  I   A   1      33.413 -19.722 -20.652  0.00  0.00    -0.259 NA
ATOM      9  N7  I   A   1      36.580 -20.981 -19.766  0.00  0.00    -0.242 NA
ATOM     10  N1  I   A   1      32.958 -21.797 -19.514  0.00  0.00    -0.183 NA
ATOM     11  C4  I   A   1      34.719 -19.931 -20.460  0.00  0.00    +0.173 C 
ATOM     12  C8  I   A   1      36.890 -19.852 -20.381  0.00  0.00    +0.205 C 
ATOM     13  C5  I   A   1      35.216 -21.030 -19.816  0.00  0.00    +0.167 C 
ATOM     14  C6  I   A   1      34.320 -22.049 -19.296  0.00  0.00    +0.168 C 
ATOM     15  C2  I   A   1      32.593 -20.711 -20.144  0.00  0.00    +0.211 C 
ATOM     16  H3  I   A   1      33.063 -18.929 -21.117  0.00  0.00    +0.127 HD
ENDBRANCH   3   7
BRANCH   2  17
ATOM     17  O2* I   A   1      35.579 -18.408 -23.910  0.00  0.00    -0.378 OA
ATOM     18  H2* I   A   1      35.228 -19.287 -24.123  0.00  0.00    +0.211 HD
ENDBRANCH   2  17
BRANCH   4  19
ATOM     19  O3* I   A   1      35.697 -15.729 -23.476  0.00  0.00    -0.379 OA
ATOM     20  H3* I   A   1      36.512 -16.052 -23.061  0.00  0.00    +0.211 HD
ENDBRANCH   4  19
BRANCH   5  21
ATOM     21  C5* I   A   1      32.980 -16.118 -20.964  0.00  0.00    +0.169 C 
BRANCH  21  22
ATOM     22  O5* I   A   1      32.181 -15.140 -21.607  0.00  0.00    -0.379 OA
ATOM     23  H5* I   A   1      31.552 -15.577 -22.202  0.00  0.00    +0.211 HD
ENDBRANCH  21  22
ENDBRANCH   5  21
TORSDOF 5
ENDMDL
MODEL 5
REMARK VINA RESULT:      -8.3      1.972      3.404
REMARK  Name = 6021
REMARK  5 active torsions:
REMARK  status: ('A' for Active; 'I' for Inactive)
REMARK    1  A    between atoms: C2*_2  and  O2*_17
REMARK    2  A    between atoms: C1*_3  and  N9_7
REMARK    3  A    between atoms: C3*_4  and  O3*_19
REMARK    4  A    between atoms: C4*_5  and  C5*_21
REMARK    5  A    between atoms: C5*_21  and  O5*_22
REMARK                            x       y       z     vdW  Elec       q    Type
REMARK                         _______ _______ _______ _____ _____    ______ ____
ROOT
ATOM      1  O4* I   A   1      34.959 -24.734 -14.944  0.00  0.00    -0.336 OA
ATOM      2  C2* I   A   1      35.961 -22.672 -15.536  0.00  0.00    +0.183 C 
ATOM      3  C1* I   A   1      35.102 -23.819 -16.046  0.00  0.00    +0.209 C 
ATOM      4  C3* I   A   1      36.894 -23.395 -14.583  0.00  0.00    +0.171 C 
ATOM      5  C4* I   A   1      35.974 -24.437 -13.957  0.00  0.00    +0.175 C 
ENDROOT
BRANCH   3   7
ATOM      6  O6  I   A   1      29.397 -22.389 -16.997  0.00  0.00    -0.221 OA
ATOM      7  N9  I   A   1      33.782 -23.408 -16.520  0.00  0.00    -0.210 NA
ATOM      8  N3  I   A   1      32.368 -23.722 -14.563  0.00  0.00    -0.259 NA
ATOM      9  N7  I   A   1      32.187 -22.666 -17.917  0.00  0.00    -0.242 NA
ATOM     10  N1  I   A   1      30.052 -23.156 -14.908  0.00  0.00    -0.183 NA
ATOM     11  C4  I   A   1      32.616 -23.386 -15.832  0.00  0.00    +0.173 C 
ATOM     12  C8  I   A   1      33.470 -22.962 -17.786  0.00  0.00    +0.205 C 
ATOM     13  C5  I   A   1      31.652 -22.933 -16.689  0.00  0.00    +0.167 C 
ATOM     14  C6  I   A   1      30.275 -22.793 -16.244  0.00  0.00    +0.168 C 
ATOM     15  C2  I   A   1      31.050 -23.577 -14.177  0.00  0.00    +0.211 C 
ATOM     16  H3  I   A   1      33.068 -24.048 -13.952  0.00  0.00    +0.127 HD
ENDBRANCH   3   7
BRANCH   2  17
ATOM     17  O2* I   A   1      36.642 -22.016 -16.586  0.00  0.00    -0.378 OA
ATOM     18  H2* I   A   1      37.438 -22.519 -16.819  0.00  0.00    +0.211 HD
ENDBRANCH   2  17
BRANCH   4  19
ATOM     19  O3* I   A   1      37.908 -24.066 -15.330  0.00  0.00    -0.379 OA
ATOM     20  H3* I   A   1      37.834 -23.825 -16.267  0.00  0.00    +0.211 HD
ENDBRANCH   4  19
BRANCH   5  21
ATOM     21  C5* I   A   1      35.284 -23.937 -12.695  0.00  0.00    +0.169 C 
BRANCH  21  22
ATOM     22  O5* I   A   1      34.131 -24.728 -12.464  0.00  0.00    -0.379 OA
ATOM     23  H5* I   A   1      34.355 -25.461 -11.869  0.00  0.00    +0.211 HD
ENDBRANCH  21  22
ENDBRANCH   5  21
TORSDOF 5
ENDMDL
MODEL 6
REMARK VINA RESULT:      -8.2      2.063      5.608
REMARK  Name = 6021
REMARK  5 active torsions:
REMARK  status: ('A' for Active; 'I' for Inactive)
REMARK    1  A    between atoms: C2*_2  and  O2*_17
REMARK    2  A    between atoms: C1*_3  and  N9_7
REMARK    3  A    between atoms: C3*_4  and  O3*_19
REMARK    4  A    between atoms: C4*_5  and  C5*_21
REMARK    5  A    between atoms: C5*_21  and  O5*_22
REMARK                            x       y       z     vdW  Elec       q    Type
REMARK                         _______ _______ _______ _____ _____    ______ ____
ROOT
ATOM      1  O4* I   A   1      34.301 -24.205 -16.616  0.00  0.00    -0.336 OA
ATOM      2  C2* I   A   1      33.070 -22.860 -15.103  0.00  0.00    +0.183 C 
ATOM      3  C1* I   A   1      34.093 -23.981 -15.208  0.00  0.00    +0.209 C 
ATOM      4  C3* I   A   1      32.195 -23.137 -16.310  0.00  0.00    +0.171 C 
ATOM      5  C4* I   A   1      33.211 -23.600 -17.349  0.00  0.00    +0.175 C 
ENDROOT
BRANCH   3   7
ATOM      6  O6  I   A   1      38.814 -23.088 -11.685  0.00  0.00    -0.221 OA
ATOM      7  N9  I   A   1      35.370 -23.685 -14.562  0.00  0.00    -0.210 NA
ATOM      8  N3  I   A   1      34.956 -24.250 -12.231  0.00  0.00    -0.259 NA
ATOM      9  N7  I   A   1      37.505 -23.029 -14.330  0.00  0.00    -0.242 NA
ATOM     10  N1  I   A   1      36.842 -23.901 -10.773  0.00  0.00    -0.183 NA
ATOM     11  C4  I   A   1      35.697 -23.818 -13.255  0.00  0.00    +0.173 C 
ATOM     12  C8  I   A   1      36.504 -23.200 -15.177  0.00  0.00    +0.205 C 
ATOM     13  C5  I   A   1      36.997 -23.417 -13.123  0.00  0.00    +0.167 C 
ATOM     14  C6  I   A   1      37.649 -23.444 -11.825  0.00  0.00    +0.168 C 
ATOM     15  C2  I   A   1      35.609 -24.260 -11.014  0.00  0.00    +0.211 C 
ATOM     16  H3  I   A   1      34.020 -24.537 -12.335  0.00  0.00    +0.127 HD
ENDBRANCH   3   7
BRANCH   2  17
ATOM     17  O2* I   A   1      32.361 -22.907 -13.882  0.00  0.00    -0.378 OA
ATOM     18  H2* I   A   1      31.479 -22.523 -14.006  0.00  0.00    +0.211 HD
ENDBRANCH   2  17
BRANCH   4  19
ATOM     19  O3* I   A   1      31.311 -24.219 -16.017  0.00  0.00    -0.379 OA
ATOM     20  H3* I   A   1      31.049 -24.180 -15.084  0.00  0.00    +0.211 HD
ENDBRANCH   4  19
BRANCH   5  21
ATOM     21  C5* I   A   1      33.771 -22.454 -18.182  0.00  0.00    +0.169 C 
BRANCH  21  22
ATOM     22  O5* I   A   1      33.077 -22.411 -19.416  0.00  0.00    -0.379 OA
ATOM     23  H5* I   A   1      32.195 -22.799 -19.306  0.00  0.00    +0.211 HD
ENDBRANCH  21  22
ENDBRANCH   5  21
TORSDOF 5
ENDMDL
MODEL 7
REMARK VINA RESULT:      -8.2      2.532      4.246
REMARK  Name = 6021
REMARK  5 active torsions:
REMARK  status: ('A' for Active; 'I' for Inactive)
REMARK    1  A    between atoms: C2*_2  and  O2*_17
REMARK    2  A    between atoms: C1*_3  and  N9_7
REMARK    3  A    between atoms: C3*_4  and  O3*_19
REMARK    4  A    between atoms: C4*_5  and  C5*_21
REMARK    5  A    between atoms: C5*_21  and  O5*_22
REMARK                            x       y       z     vdW  Elec       q    Type
REMARK                         _______ _______ _______ _____ _____    ______ ____
ROOT
ATOM      1  O4* I   A   1      35.218 -24.481 -15.721  0.00  0.00    -0.336 OA
ATOM      2  C2* I   A   1      36.263 -22.372 -15.447  0.00  0.00    +0.183 C 
ATOM      3  C1* I   A   1      35.772 -23.384 -16.472  0.00  0.00    +0.209 C 
ATOM      4  C3* I   A   1      36.732 -23.282 -14.328  0.00  0.00    +0.171 C 
ATOM      5  C4* I   A   1      35.691 -24.395 -14.356  0.00  0.00    +0.175 C 
ENDROOT
BRANCH   3   7
ATOM      6  O6  I   A   1      32.484 -20.750 -20.685  0.00  0.00    -0.221 OA
ATOM      7  N9  I   A   1      34.764 -22.859 -17.392  0.00  0.00    -0.210 NA
ATOM      8  N3  I   A   1      36.072 -21.490 -18.922  0.00  0.00    -0.259 NA
ATOM      9  N7  I   A   1      32.751 -22.490 -18.317  0.00  0.00    -0.242 NA
ATOM     10  N1  I   A   1      34.777 -20.406 -20.641  0.00  0.00    -0.183 NA
ATOM     11  C4  I   A   1      34.947 -22.031 -18.448  0.00  0.00    +0.173 C 
ATOM     12  C8  I   A   1      33.410 -23.110 -17.351  0.00  0.00    +0.205 C 
ATOM     13  C5  I   A   1      33.717 -21.813 -19.005  0.00  0.00    +0.167 C 
ATOM     14  C6  I   A   1      33.577 -20.958 -20.171  0.00  0.00    +0.168 C 
ATOM     15  C2  I   A   1      35.899 -20.683 -20.030  0.00  0.00    +0.211 C 
ATOM     16  H3  I   A   1      36.954 -21.652 -18.515  0.00  0.00    +0.127 HD
ENDBRANCH   3   7
BRANCH   2  17
ATOM     17  O2* I   A   1      37.293 -21.555 -15.966  0.00  0.00    -0.378 OA
ATOM     18  H2* I   A   1      36.903 -20.783 -16.405  0.00  0.00    +0.211 HD
ENDBRANCH   2  17
BRANCH   4  19
ATOM     19  O3* I   A   1      38.005 -23.833 -14.666  0.00  0.00    -0.379 OA
ATOM     20  H3* I   A   1      38.039 -24.008 -15.620  0.00  0.00    +0.211 HD
ENDBRANCH   4  19
BRANCH   5  21
ATOM     21  C5* I   A   1      34.498 -24.115 -13.452  0.00  0.00    +0.169 C 
BRANCH  21  22
ATOM     22  O5* I   A   1      34.637 -24.882 -12.268  0.00  0.00    -0.379 OA
ATOM     23  H5* I   A   1      35.480 -24.665 -11.839  0.00  0.00    +0.211 HD
ENDBRANCH  21  22
ENDBRANCH   5  21
TORSDOF 5
ENDMDL
MODEL 8
REMARK VINA RESULT:      -8.1      1.429      3.047
REMARK  Name = 6021
REMARK  5 active torsions:
REMARK  status: ('A' for Active; 'I' for Inactive)
REMARK    1  A    between atoms: C2*_2  and  O2*_17
REMARK    2  A    between atoms: C1*_3  and  N9_7
REMARK    3  A    between atoms: C3*_4  and  O3*_19
REMARK    4  A    between atoms: C4*_5  and  C5*_21
REMARK    5  A    between atoms: C5*_21  and  O5*_22
REMARK                            x       y       z     vdW  Elec       q    Type
REMARK                         _______ _______ _______ _____ _____    ______ ____
ROOT
ATOM      1  O4* I   A   1      35.648 -25.147 -13.042  0.00  0.00    -0.336 OA
ATOM      2  C2* I   A   1      36.567 -23.172 -13.972  0.00  0.00    +0.183 C 
ATOM      3  C1* I   A   1      35.688 -24.379 -14.260  0.00  0.00    +0.209 C 
ATOM      4  C3* I   A   1      37.585 -23.762 -13.015  0.00  0.00    +0.171 C 
ATOM      5  C4* I   A   1      36.735 -24.721 -12.188  0.00  0.00    +0.175 C 
ENDROOT
BRANCH   3   7
ATOM      6  O6  I   A   1      30.590 -22.734 -16.869  0.00  0.00    -0.221 OA
ATOM      7  N9  I   A   1      34.327 -24.040 -14.673  0.00  0.00    -0.210 NA
ATOM      8  N3  I   A   1      34.617 -23.287 -16.970  0.00  0.00    -0.259 NA
ATOM      9  N7  I   A   1      32.103 -23.757 -14.551  0.00  0.00    -0.242 NA
ATOM     10  N1  I   A   1      32.577 -22.611 -18.059  0.00  0.00    -0.183 NA
ATOM     11  C4  I   A   1      33.911 -23.564 -15.870  0.00  0.00    +0.173 C 
ATOM     12  C8  I   A   1      33.190 -24.140 -13.902  0.00  0.00    +0.205 C 
ATOM     13  C5  I   A   1      32.557 -23.395 -15.787  0.00  0.00    +0.167 C 
ATOM     14  C6  I   A   1      31.804 -22.892 -16.924  0.00  0.00    +0.168 C 
ATOM     15  C2  I   A   1      33.868 -22.811 -18.029  0.00  0.00    +0.211 C 
ATOM     16  H3  I   A   1      35.592 -23.412 -17.022  0.00  0.00    +0.127 HD
ENDBRANCH   3   7
BRANCH   2  17
ATOM     17  O2* I   A   1      37.151 -22.653 -15.150  0.00  0.00    -0.378 OA
ATOM     18  H2* I   A   1      36.481 -22.611 -15.851  0.00  0.00    +0.211 HD
ENDBRANCH   2  17
BRANCH   4  19
ATOM     19  O3* I   A   1      38.546 -24.518 -13.752  0.00  0.00    -0.379 OA
ATOM     20  H3* I   A   1      38.765 -25.327 -13.263  0.00  0.00    +0.211 HD
ENDBRANCH   4  19
BRANCH   5  21
ATOM     21  C5* I   A   1      36.142 -24.067 -10.947  0.00  0.00    +0.169 C 
BRANCH  21  22
ATOM     22  O5* I   A   1      35.304 -25.006 -10.297  0.00  0.00    -0.379 OA
ATOM     23  H5* I   A   1      34.544 -24.546  -9.906  0.00  0.00    +0.211 HD
ENDBRANCH  21  22
ENDBRANCH   5  21
TORSDOF 5
ENDMDL
MODEL 9
REMARK VINA RESULT:      -8.1      1.494      2.471
REMARK  Name = 6021
REMARK  5 active torsions:
REMARK  status: ('A' for Active; 'I' for Inactive)
REMARK    1  A    between atoms: C2*_2  and  O2*_17
REMARK    2  A    between atoms: C1*_3  and  N9_7
REMARK    3  A    between atoms: C3*_4  and  O3*_19
REMARK    4  A    between atoms: C4*_5  and  C5*_21
REMARK    5  A    between atoms: C5*_21  and  O5*_22
REMARK                            x       y       z     vdW  Elec       q    Type
REMARK                         _______ _______ _______ _____ _____    ______ ____
ROOT
ATOM      1  O4* I   A   1      37.942 -23.776 -14.774  0.00  0.00    -0.336 OA
ATOM      2  C2* I   A   1      36.434 -24.011 -12.963  0.00  0.00    +0.183 C 
ATOM      3  C1* I   A   1      36.756 -23.192 -14.204  0.00  0.00    +0.209 C 
ATOM      4  C3* I   A   1      37.822 -24.372 -12.472  0.00  0.00    +0.171 C 
ATOM      5  C4* I   A   1      38.577 -24.609 -13.776  0.00  0.00    +0.175 C 
ENDROOT
BRANCH   3   7
ATOM      6  O6  I   A   1      33.111 -22.634 -18.884  0.00  0.00    -0.221 OA
ATOM      7  N9  I   A   1      35.687 -23.176 -15.201  0.00  0.00    -0.210 NA
ATOM      8  N3  I   A   1      36.726 -22.077 -17.108  0.00  0.00    -0.259 NA
ATOM      9  N7  I   A   1      33.667 -23.514 -16.123  0.00  0.00    -0.242 NA
ATOM     10  N1  I   A   1      35.283 -21.831 -19.022  0.00  0.00    -0.183 NA
ATOM     11  C4  I   A   1      35.724 -22.674 -16.458  0.00  0.00    +0.173 C 
ATOM     12  C8  I   A   1      34.413 -23.676 -15.042  0.00  0.00    +0.205 C 
ATOM     13  C5  I   A   1      34.491 -22.885 -17.011  0.00  0.00    +0.167 C 
ATOM     14  C6  I   A   1      34.209 -22.455 -18.370  0.00  0.00    +0.168 C 
ATOM     15  C2  I   A   1      36.421 -21.682 -18.396  0.00  0.00    +0.211 C 
ATOM     16  H3  I   A   1      37.611 -21.929 -16.703  0.00  0.00    +0.127 HD
ENDBRANCH   3   7
BRANCH   2  17
ATOM     17  O2* I   A   1      35.688 -23.269 -12.020  0.00  0.00    -0.378 OA
ATOM     18  H2* I   A   1      35.906 -22.327 -12.105  0.00  0.00    +0.211 HD
ENDBRANCH   2  17
BRANCH   4  19
ATOM     19  O3* I   A   1      38.397 -23.248 -11.805  0.00  0.00    -0.379 OA
ATOM     20  H3* I   A   1      38.241 -23.323 -10.851  0.00  0.00    +0.211 HD
ENDBRANCH   4  19
BRANCH   5  21
ATOM     21  C5* I   A   1      38.510 -26.056 -14.245  0.00  0.00    +0.169 C 
BRANCH  21  22
ATOM     22  O5* I   A   1      39.319 -26.195 -15.400  0.00  0.00    -0.379 OA
ATOM     23  H5* I   A   1      38.756 -26.209 -16.190  0.00  0.00    +0.211 HD
ENDBRANCH  21  22
ENDBRANCH   5  21
TORSDOF 5
ENDMDL
