MODEL 1
REMARK VINA RESULT:      -8.2      0.000      0.000
REMARK  Name = 68368
REMARK  5 active torsions:
REMARK  status: ('A' for Active; 'I' for Inactive)
REMARK    1  A    between atoms: C2*_2  and  O2*_15
REMARK    2  A    between atoms: C1*_3  and  N_6
REMARK    3  A    between atoms: C3*_4  and  O3*_17
REMARK    4  A    between atoms: C4*_5  and  C5*_19
REMARK    5  A    between atoms: C5*_19  and  O5*_20
REMARK                            x       y       z     vdW  Elec       q    Type
REMARK                         _______ _______ _______ _____ _____    ______ ____
ROOT
ATOM      1  O4* UNL     1      34.926 -17.310 -20.671  0.00  0.00    -0.333 OA
ATOM      2  C2* UNL     1      34.157 -18.020 -22.796  0.00  0.00    +0.187 C 
ATOM      3  C1* UNL     1      34.908 -18.454 -21.545  0.00  0.00    +0.225 C 
ATOM      4  C3* UNL     1      34.568 -16.564 -22.904  0.00  0.00    +0.171 C 
ATOM      5  C4* UNL     1      34.606 -16.128 -21.442  0.00  0.00    +0.175 C 
ENDROOT
BRANCH   3   6
ATOM      6  N   UNL     1      34.306 -19.593 -20.854  0.00  0.00    -0.247 N 
ATOM      7  N   UNL     1      32.749 -21.047 -20.194  0.00  0.00    -0.247 NA
ATOM      8  N   UNL     1      36.226 -20.466 -19.649  0.00  0.00    -0.208 NA
ATOM      9  N   UNL     1      35.628 -22.430 -18.329  0.00  0.00    -0.243 NA
ATOM     10  C   UNL     1      34.936 -20.468 -20.013  0.00  0.00    +0.152 C 
ATOM     11  C   UNL     1      32.995 -19.984 -20.930  0.00  0.00    +0.223 C 
ATOM     12  C   UNL     1      33.954 -21.361 -19.615  0.00  0.00    +0.112 C 
ATOM     13  C   UNL     1      34.339 -22.371 -18.740  0.00  0.00    +0.175 C 
ATOM     14  C   UNL     1      36.480 -21.488 -18.803  0.00  0.00    +0.196 C 
ENDBRANCH   3   6
BRANCH   2  15
ATOM     15  O2* UNL     1      34.528 -18.785 -23.924  0.00  0.00    -0.378 OA
ATOM     16  H2* UNL     1      35.048 -19.552 -23.638  0.00  0.00    +0.211 HD
ENDBRANCH   2  15
BRANCH   4  17
ATOM     17  O3* UNL     1      35.886 -16.481 -23.443  0.00  0.00    -0.379 OA
ATOM     18  H3* UNL     1      36.327 -15.688 -23.099  0.00  0.00    +0.211 HD
ENDBRANCH   4  17
BRANCH   5  19
ATOM     19  C5* UNL     1      33.273 -15.581 -20.951  0.00  0.00    +0.169 C 
BRANCH  19  20
ATOM     20  O5* UNL     1      32.652 -14.879 -22.013  0.00  0.00    -0.379 OA
ATOM     21  H5* UNL     1      33.141 -14.060 -22.188  0.00  0.00    +0.211 HD
ENDBRANCH  19  20
ENDBRANCH   5  19
TORSDOF 5
ENDMDL
MODEL 2
REMARK VINA RESULT:      -8.0      6.757      9.575
REMARK  Name = 68368
REMARK  5 active torsions:
REMARK  status: ('A' for Active; 'I' for Inactive)
REMARK    1  A    between atoms: C2*_2  and  O2*_15
REMARK    2  A    between atoms: C1*_3  and  N_6
REMARK    3  A    between atoms: C3*_4  and  O3*_17
REMARK    4  A    between atoms: C4*_5  and  C5*_19
REMARK    5  A    between atoms: C5*_19  and  O5*_20
REMARK                            x       y       z     vdW  Elec       q    Type
REMARK                         _______ _______ _______ _____ _____    ______ ____
ROOT
ATOM      1  O4* UNL     1      38.024 -23.947 -13.878  0.00  0.00    -0.333 OA
ATOM      2  C2* UNL     1      36.885 -25.726 -14.951  0.00  0.00    +0.187 C 
ATOM      3  C1* UNL     1      36.800 -24.254 -14.574  0.00  0.00    +0.225 C 
ATOM      4  C3* UNL     1      37.648 -26.296 -13.771  0.00  0.00    +0.171 C 
ATOM      5  C4* UNL     1      38.646 -25.185 -13.462  0.00  0.00    +0.175 C 
ENDROOT
BRANCH   3   6
ATOM      6  N   UNL     1      36.643 -23.355 -15.715  0.00  0.00    -0.247 N 
ATOM      7  N   UNL     1      37.158 -21.814 -17.243  0.00  0.00    -0.247 NA
ATOM      8  N   UNL     1      34.359 -23.848 -16.378  0.00  0.00    -0.208 NA
ATOM      9  N   UNL     1      33.686 -22.513 -18.308  0.00  0.00    -0.243 NA
ATOM     10  C   UNL     1      35.530 -23.206 -16.495  0.00  0.00    +0.152 C 
ATOM     11  C   UNL     1      37.593 -22.497 -16.205  0.00  0.00    +0.223 C 
ATOM     12  C   UNL     1      35.870 -22.247 -17.435  0.00  0.00    +0.112 C 
ATOM     13  C   UNL     1      34.894 -21.904 -18.366  0.00  0.00    +0.175 C 
ATOM     14  C   UNL     1      33.496 -23.434 -17.332  0.00  0.00    +0.196 C 
ENDBRANCH   3   6
BRANCH   2  15
ATOM     15  O2* UNL     1      35.606 -26.303 -15.113  0.00  0.00    -0.378 OA
ATOM     16  H2* UNL     1      35.694 -27.176 -15.526  0.00  0.00    +0.211 HD
ENDBRANCH   2  15
BRANCH   4  17
ATOM     17  O3* UNL     1      36.765 -26.442 -12.660  0.00  0.00    -0.379 OA
ATOM     18  H3* UNL     1      37.233 -26.211 -11.841  0.00  0.00    +0.211 HD
ENDBRANCH   4  17
BRANCH   5  19
ATOM     19  C5* UNL     1      39.959 -25.340 -14.219  0.00  0.00    +0.169 C 
BRANCH  19  20
ATOM     20  O5* UNL     1      40.118 -26.701 -14.577  0.00  0.00    -0.379 OA
ATOM     21  H5* UNL     1      39.927 -26.811 -15.521  0.00  0.00    +0.211 HD
ENDBRANCH  19  20
ENDBRANCH   5  19
TORSDOF 5
ENDMDL
MODEL 3
REMARK VINA RESULT:      -8.0      7.514      9.845
REMARK  Name = 68368
REMARK  5 active torsions:
REMARK  status: ('A' for Active; 'I' for Inactive)
REMARK    1  A    between atoms: C2*_2  and  O2*_15
REMARK    2  A    between atoms: C1*_3  and  N_6
REMARK    3  A    between atoms: C3*_4  and  O3*_17
REMARK    4  A    between atoms: C4*_5  and  C5*_19
REMARK    5  A    between atoms: C5*_19  and  O5*_20
REMARK                            x       y       z     vdW  Elec       q    Type
REMARK                         _______ _______ _______ _____ _____    ______ ____
ROOT
ATOM      1  O4* UNL     1      37.570 -23.254 -13.419  0.00  0.00    -0.333 OA
ATOM      2  C2* UNL     1      35.901 -24.805 -12.772  0.00  0.00    +0.187 C 
ATOM      3  C1* UNL     1      36.141 -23.436 -13.391  0.00  0.00    +0.225 C 
ATOM      4  C3* UNL     1      37.037 -24.888 -11.771  0.00  0.00    +0.171 C 
ATOM      5  C4* UNL     1      38.179 -24.209 -12.520  0.00  0.00    +0.175 C 
ENDROOT
BRANCH   3   6
ATOM      6  N   UNL     1      35.597 -23.287 -14.739  0.00  0.00    -0.247 N 
ATOM      7  N   UNL     1      35.552 -22.964 -16.946  0.00  0.00    -0.247 NA
ATOM      8  N   UNL     1      33.223 -23.573 -14.312  0.00  0.00    -0.208 NA
ATOM      9  N   UNL     1      31.922 -23.388 -16.370  0.00  0.00    -0.243 NA
ATOM     10  C   UNL     1      34.282 -23.356 -15.106  0.00  0.00    +0.152 C 
ATOM     11  C   UNL     1      36.319 -23.050 -15.880  0.00  0.00    +0.223 C 
ATOM     12  C   UNL     1      34.276 -23.153 -16.476  0.00  0.00    +0.112 C 
ATOM     13  C   UNL     1      33.037 -23.175 -17.109  0.00  0.00    +0.175 C 
ATOM     14  C   UNL     1      32.083 -23.572 -15.037  0.00  0.00    +0.196 C 
ENDBRANCH   3   6
BRANCH   2  15
ATOM     15  O2* UNL     1      34.626 -24.895 -12.170  0.00  0.00    -0.378 OA
ATOM     16  H2* UNL     1      34.723 -25.180 -11.248  0.00  0.00    +0.211 HD
ENDBRANCH   2  15
BRANCH   4  17
ATOM     17  O3* UNL     1      36.714 -24.108 -10.621  0.00  0.00    -0.379 OA
ATOM     18  H3* UNL     1      35.768 -24.196 -10.425  0.00  0.00    +0.211 HD
ENDBRANCH   4  17
BRANCH   5  19
ATOM     19  C5* UNL     1      39.009 -25.183 -13.346  0.00  0.00    +0.169 C 
BRANCH  19  20
ATOM     20  O5* UNL     1      39.291 -24.588 -14.601  0.00  0.00    -0.379 OA
ATOM     21  H5* UNL     1      40.240 -24.396 -14.660  0.00  0.00    +0.211 HD
ENDBRANCH  19  20
ENDBRANCH   5  19
TORSDOF 5
ENDMDL
MODEL 4
REMARK VINA RESULT:      -7.8      6.584      8.504
REMARK  Name = 68368
REMARK  5 active torsions:
REMARK  status: ('A' for Active; 'I' for Inactive)
REMARK    1  A    between atoms: C2*_2  and  O2*_15
REMARK    2  A    between atoms: C1*_3  and  N_6
REMARK    3  A    between atoms: C3*_4  and  O3*_17
REMARK    4  A    between atoms: C4*_5  and  C5*_19
REMARK    5  A    between atoms: C5*_19  and  O5*_20
REMARK                            x       y       z     vdW  Elec       q    Type
REMARK                         _______ _______ _______ _____ _____    ______ ____
ROOT
ATOM      1  O4* UNL     1      31.347 -24.256 -15.787  0.00  0.00    -0.333 OA
ATOM      2  C2* UNL     1      32.019 -23.068 -13.850  0.00  0.00    +0.187 C 
ATOM      3  C1* UNL     1      32.486 -24.027 -14.935  0.00  0.00    +0.225 C 
ATOM      4  C3* UNL     1      30.579 -23.506 -13.661  0.00  0.00    +0.171 C 
ATOM      5  C4* UNL     1      30.151 -23.840 -15.087  0.00  0.00    +0.175 C 
ENDROOT
BRANCH   3   6
ATOM      6  N   UNL     1      33.604 -23.526 -15.732  0.00  0.00    -0.247 N 
ATOM      7  N   UNL     1      34.723 -22.745 -17.497  0.00  0.00    -0.247 NA
ATOM      8  N   UNL     1      35.395 -23.569 -14.092  0.00  0.00    -0.208 NA
ATOM      9  N   UNL     1      37.498 -22.786 -15.051  0.00  0.00    -0.243 NA
ATOM     10  C   UNL     1      34.891 -23.337 -15.312  0.00  0.00    +0.152 C 
ATOM     11  C   UNL     1      33.555 -23.156 -17.051  0.00  0.00    +0.223 C 
ATOM     12  C   UNL     1      35.568 -22.853 -16.420  0.00  0.00    +0.112 C 
ATOM     13  C   UNL     1      36.922 -22.574 -16.258  0.00  0.00    +0.175 C 
ATOM     14  C   UNL     1      36.710 -23.263 -14.057  0.00  0.00    +0.196 C 
ENDBRANCH   3   6
BRANCH   2  15
ATOM     15  O2* UNL     1      32.792 -23.187 -12.674  0.00  0.00    -0.378 OA
ATOM     16  H2* UNL     1      32.749 -24.100 -12.349  0.00  0.00    +0.211 HD
ENDBRANCH   2  15
BRANCH   4  17
ATOM     17  O3* UNL     1      30.544 -24.699 -12.879  0.00  0.00    -0.379 OA
ATOM     18  H3* UNL     1      30.713 -25.465 -13.450  0.00  0.00    +0.211 HD
ENDBRANCH   4  17
BRANCH   5  19
ATOM     19  C5* UNL     1      29.555 -22.648 -15.823  0.00  0.00    +0.169 C 
BRANCH  19  20
ATOM     20  O5* UNL     1      30.184 -22.534 -17.087  0.00  0.00    -0.379 OA
ATOM     21  H5* UNL     1      30.440 -21.611 -17.239  0.00  0.00    +0.211 HD
ENDBRANCH  19  20
ENDBRANCH   5  19
TORSDOF 5
ENDMDL
MODEL 5
REMARK VINA RESULT:      -7.8      0.973      2.034
REMARK  Name = 68368
REMARK  5 active torsions:
REMARK  status: ('A' for Active; 'I' for Inactive)
REMARK    1  A    between atoms: C2*_2  and  O2*_15
REMARK    2  A    between atoms: C1*_3  and  N_6
REMARK    3  A    between atoms: C3*_4  and  O3*_17
REMARK    4  A    between atoms: C4*_5  and  C5*_19
REMARK    5  A    between atoms: C5*_19  and  O5*_20
REMARK                            x       y       z     vdW  Elec       q    Type
REMARK                         _______ _______ _______ _____ _____    ______ ____
ROOT
ATOM      1  O4* UNL     1      35.302 -17.009 -20.721  0.00  0.00    -0.333 OA
ATOM      2  C2* UNL     1      34.849 -18.079 -22.785  0.00  0.00    +0.187 C 
ATOM      3  C1* UNL     1      35.773 -18.068 -21.576  0.00  0.00    +0.225 C 
ATOM      4  C3* UNL     1      34.536 -16.604 -22.939  0.00  0.00    +0.171 C 
ATOM      5  C4* UNL     1      34.438 -16.139 -21.489  0.00  0.00    +0.175 C 
ENDROOT
BRANCH   3   6
ATOM      6  N   UNL     1      35.797 -19.327 -20.833  0.00  0.00    -0.247 N 
ATOM      7  N   UNL     1      36.621 -21.089 -19.741  0.00  0.00    -0.247 NA
ATOM      8  N   UNL     1      33.424 -19.828 -20.698  0.00  0.00    -0.208 NA
ATOM      9  N   UNL     1      33.024 -21.916 -19.499  0.00  0.00    -0.243 NA
ATOM     10  C   UNL     1      34.720 -20.081 -20.462  0.00  0.00    +0.152 C 
ATOM     11  C   UNL     1      36.916 -19.974 -20.377  0.00  0.00    +0.223 C 
ATOM     12  C   UNL     1      35.251 -21.168 -19.786  0.00  0.00    +0.112 C 
ATOM     13  C   UNL     1      34.349 -22.107 -19.296  0.00  0.00    +0.175 C 
ATOM     14  C   UNL     1      32.649 -20.804 -20.177  0.00  0.00    +0.196 C 
ENDBRANCH   3   6
BRANCH   2  15
ATOM     15  O2* UNL     1      35.478 -18.633 -23.922  0.00  0.00    -0.378 OA
ATOM     16  H2* UNL     1      35.104 -19.509 -24.104  0.00  0.00    +0.211 HD
ENDBRANCH   2  15
BRANCH   4  17
ATOM     17  O3* UNL     1      35.641 -15.946 -23.557  0.00  0.00    -0.379 OA
ATOM     18  H3* UNL     1      36.055 -15.341 -22.921  0.00  0.00    +0.211 HD
ENDBRANCH   4  17
BRANCH   5  19
ATOM     19  C5* UNL     1      33.027 -16.247 -20.926  0.00  0.00    +0.169 C 
BRANCH  19  20
ATOM     20  O5* UNL     1      32.222 -15.247 -21.527  0.00  0.00    -0.379 OA
ATOM     21  H5* UNL     1      32.126 -14.500 -20.916  0.00  0.00    +0.211 HD
ENDBRANCH  19  20
ENDBRANCH   5  19
TORSDOF 5
ENDMDL
MODEL 6
REMARK VINA RESULT:      -7.8      8.602     10.333
REMARK  Name = 68368
REMARK  5 active torsions:
REMARK  status: ('A' for Active; 'I' for Inactive)
REMARK    1  A    between atoms: C2*_2  and  O2*_15
REMARK    2  A    between atoms: C1*_3  and  N_6
REMARK    3  A    between atoms: C3*_4  and  O3*_17
REMARK    4  A    between atoms: C4*_5  and  C5*_19
REMARK    5  A    between atoms: C5*_19  and  O5*_20
REMARK                            x       y       z     vdW  Elec       q    Type
REMARK                         _______ _______ _______ _____ _____    ______ ____
ROOT
ATOM      1  O4* UNL     1      35.162 -24.036 -11.974  0.00  0.00    -0.333 OA
ATOM      2  C2* UNL     1      36.400 -25.205 -13.620  0.00  0.00    +0.187 C 
ATOM      3  C1* UNL     1      34.997 -24.893 -13.120  0.00  0.00    +0.225 C 
ATOM      4  C3* UNL     1      37.180 -25.250 -12.320  0.00  0.00    +0.171 C 
ATOM      5  C4* UNL     1      36.529 -24.132 -11.512  0.00  0.00    +0.175 C 
ENDROOT
BRANCH   3   6
ATOM      6  N   UNL     1      34.145 -24.235 -14.109  0.00  0.00    -0.247 N 
ATOM      7  N   UNL     1      33.570 -23.018 -15.888  0.00  0.00    -0.247 NA
ATOM      8  N   UNL     1      31.941 -24.869 -13.309  0.00  0.00    -0.208 NA
ATOM      9  N   UNL     1      30.182 -23.942 -14.726  0.00  0.00    -0.243 NA
ATOM     10  C   UNL     1      32.779 -24.251 -14.154  0.00  0.00    +0.152 C 
ATOM     11  C   UNL     1      34.572 -23.482 -15.171  0.00  0.00    +0.223 C 
ATOM     12  C   UNL     1      32.443 -23.492 -15.264  0.00  0.00    +0.112 C 
ATOM     13  C   UNL     1      31.087 -23.347 -15.539  0.00  0.00    +0.175 C 
ATOM     14  C   UNL     1      30.658 -24.656 -13.678  0.00  0.00    +0.196 C 
ENDBRANCH   3   6
BRANCH   2  15
ATOM     15  O2* UNL     1      36.445 -26.423 -14.334  0.00  0.00    -0.378 OA
ATOM     16  H2* UNL     1      36.202 -26.264 -15.260  0.00  0.00    +0.211 HD
ENDBRANCH   2  15
BRANCH   4  17
ATOM     17  O3* UNL     1      36.938 -26.494 -11.663  0.00  0.00    -0.379 OA
ATOM     18  H3* UNL     1      36.755 -27.179 -12.326  0.00  0.00    +0.211 HD
ENDBRANCH   4  17
BRANCH   5  19
ATOM     19  C5* UNL     1      37.201 -22.782 -11.717  0.00  0.00    +0.169 C 
BRANCH  19  20
ATOM     20  O5* UNL     1      38.605 -22.958 -11.638  0.00  0.00    -0.379 OA
ATOM     21  H5* UNL     1      39.013 -22.146 -11.300  0.00  0.00    +0.211 HD
ENDBRANCH  19  20
ENDBRANCH   5  19
TORSDOF 5
ENDMDL
MODEL 7
REMARK VINA RESULT:      -7.8      6.678      9.271
REMARK  Name = 68368
REMARK  5 active torsions:
REMARK  status: ('A' for Active; 'I' for Inactive)
REMARK    1  A    between atoms: C2*_2  and  O2*_15
REMARK    2  A    between atoms: C1*_3  and  N_6
REMARK    3  A    between atoms: C3*_4  and  O3*_17
REMARK    4  A    between atoms: C4*_5  and  C5*_19
REMARK    5  A    between atoms: C5*_19  and  O5*_20
REMARK                            x       y       z     vdW  Elec       q    Type
REMARK                         _______ _______ _______ _____ _____    ______ ____
ROOT
ATOM      1  O4* UNL     1      36.368 -25.339 -13.454  0.00  0.00    -0.333 OA
ATOM      2  C2* UNL     1      36.960 -23.556 -14.897  0.00  0.00    +0.187 C 
ATOM      3  C1* UNL     1      35.970 -24.691 -14.678  0.00  0.00    +0.225 C 
ATOM      4  C3* UNL     1      38.235 -24.156 -14.339  0.00  0.00    +0.171 C 
ATOM      5  C4* UNL     1      37.724 -24.947 -13.139  0.00  0.00    +0.175 C 
ENDROOT
BRANCH   3   6
ATOM      6  N   UNL     1      34.578 -24.257 -14.576  0.00  0.00    -0.247 N 
ATOM      7  N   UNL     1      32.595 -23.806 -13.660  0.00  0.00    -0.247 NA
ATOM      8  N   UNL     1      34.129 -23.613 -16.875  0.00  0.00    -0.208 NA
ATOM      9  N   UNL     1      31.839 -22.808 -17.140  0.00  0.00    -0.243 NA
ATOM     10  C   UNL     1      33.792 -23.781 -15.588  0.00  0.00    +0.152 C 
ATOM     11  C   UNL     1      33.814 -24.252 -13.439  0.00  0.00    +0.223 C 
ATOM     12  C   UNL     1      32.568 -23.507 -14.999  0.00  0.00    +0.112 C 
ATOM     13  C   UNL     1      31.570 -23.002 -15.827  0.00  0.00    +0.175 C 
ATOM     14  C   UNL     1      33.084 -23.120 -17.576  0.00  0.00    +0.196 C 
ENDBRANCH   3   6
BRANCH   2  15
ATOM     15  O2* UNL     1      37.065 -23.206 -16.262  0.00  0.00    -0.378 OA
ATOM     16  H2* UNL     1      36.411 -22.520 -16.471  0.00  0.00    +0.211 HD
ENDBRANCH   2  15
BRANCH   4  17
ATOM     17  O3* UNL     1      38.787 -25.068 -15.288  0.00  0.00    -0.379 OA
ATOM     18  H3* UNL     1      39.454 -25.623 -14.854  0.00  0.00    +0.211 HD
ENDBRANCH   4  17
BRANCH   5  19
ATOM     19  C5* UNL     1      37.701 -24.129 -11.855  0.00  0.00    +0.169 C 
BRANCH  19  20
ATOM     20  O5* UNL     1      38.874 -23.337 -11.801  0.00  0.00    -0.379 OA
ATOM     21  H5* UNL     1      39.331 -23.378 -12.655  0.00  0.00    +0.211 HD
ENDBRANCH  19  20
ENDBRANCH   5  19
TORSDOF 5
ENDMDL
MODEL 8
REMARK VINA RESULT:      -7.6      5.990      8.521
REMARK  Name = 68368
REMARK  5 active torsions:
REMARK  status: ('A' for Active; 'I' for Inactive)
REMARK    1  A    between atoms: C2*_2  and  O2*_15
REMARK    2  A    between atoms: C1*_3  and  N_6
REMARK    3  A    between atoms: C3*_4  and  O3*_17
REMARK    4  A    between atoms: C4*_5  and  C5*_19
REMARK    5  A    between atoms: C5*_19  and  O5*_20
REMARK                            x       y       z     vdW  Elec       q    Type
REMARK                         _______ _______ _______ _____ _____    ______ ____
ROOT
ATOM      1  O4* UNL     1      34.362 -24.227 -16.612  0.00  0.00    -0.333 OA
ATOM      2  C2* UNL     1      33.146 -22.859 -15.108  0.00  0.00    +0.187 C 
ATOM      3  C1* UNL     1      34.165 -23.985 -15.205  0.00  0.00    +0.225 C 
ATOM      4  C3* UNL     1      32.262 -23.148 -16.305  0.00  0.00    +0.171 C 
ATOM      5  C4* UNL     1      33.270 -23.626 -17.346  0.00  0.00    +0.175 C 
ENDROOT
BRANCH   3   6
ATOM      6  N   UNL     1      35.447 -23.685 -14.572  0.00  0.00    -0.247 N 
ATOM      7  N   UNL     1      37.571 -23.035 -14.366  0.00  0.00    -0.247 NA
ATOM      8  N   UNL     1      34.966 -24.267 -12.263  0.00  0.00    -0.208 NA
ATOM      9  N   UNL     1      36.909 -23.902 -10.831  0.00  0.00    -0.243 NA
ATOM     10  C   UNL     1      35.761 -23.828 -13.249  0.00  0.00    +0.152 C 
ATOM     11  C   UNL     1      36.567 -23.207 -15.200  0.00  0.00    +0.223 C 
ATOM     12  C   UNL     1      37.081 -23.419 -13.142  0.00  0.00    +0.112 C 
ATOM     13  C   UNL     1      37.654 -23.467 -11.875  0.00  0.00    +0.175 C 
ATOM     14  C   UNL     1      35.630 -24.269 -11.086  0.00  0.00    +0.196 C 
ENDBRANCH   3   6
BRANCH   2  15
ATOM     15  O2* UNL     1      32.444 -22.889 -13.882  0.00  0.00    -0.378 OA
ATOM     16  H2* UNL     1      31.968 -22.053 -13.762  0.00  0.00    +0.211 HD
ENDBRANCH   2  15
BRANCH   4  17
ATOM     17  O3* UNL     1      31.377 -24.223 -15.995  0.00  0.00    -0.379 OA
ATOM     18  H3* UNL     1      31.893 -25.025 -15.813  0.00  0.00    +0.211 HD
ENDBRANCH   4  17
BRANCH   5  19
ATOM     19  C5* UNL     1      33.829 -22.492 -18.195  0.00  0.00    +0.169 C 
BRANCH  19  20
ATOM     20  O5* UNL     1      32.851 -22.117 -19.150  0.00  0.00    -0.379 OA
ATOM     21  H5* UNL     1      33.289 -21.746 -19.931  0.00  0.00    +0.211 HD
ENDBRANCH  19  20
ENDBRANCH   5  19
TORSDOF 5
ENDMDL
MODEL 9
REMARK VINA RESULT:      -7.5      6.171      8.678
REMARK  Name = 68368
REMARK  5 active torsions:
REMARK  status: ('A' for Active; 'I' for Inactive)
REMARK    1  A    between atoms: C2*_2  and  O2*_15
REMARK    2  A    between atoms: C1*_3  and  N_6
REMARK    3  A    between atoms: C3*_4  and  O3*_17
REMARK    4  A    between atoms: C4*_5  and  C5*_19
REMARK    5  A    between atoms: C5*_19  and  O5*_20
REMARK                            x       y       z     vdW  Elec       q    Type
REMARK                         _______ _______ _______ _____ _____    ______ ____
ROOT
ATOM      1  O4* UNL     1      36.257 -23.339 -14.132  0.00  0.00    -0.333 OA
ATOM      2  C2* UNL     1      36.123 -25.455 -15.189  0.00  0.00    +0.187 C 
ATOM      3  C1* UNL     1      35.438 -24.523 -14.200  0.00  0.00    +0.225 C 
ATOM      4  C3* UNL     1      37.585 -25.146 -14.932  0.00  0.00    +0.171 C 
ATOM      5  C4* UNL     1      37.560 -23.641 -14.681  0.00  0.00    +0.175 C 
ENDROOT
BRANCH   3   6
ATOM      6  N   UNL     1      34.073 -24.158 -14.572  0.00  0.00    -0.247 N 
ATOM      7  N   UNL     1      31.871 -23.851 -14.387  0.00  0.00    -0.247 NA
ATOM      8  N   UNL     1      34.407 -23.398 -16.855  0.00  0.00    -0.208 NA
ATOM      9  N   UNL     1      32.305 -22.681 -17.869  0.00  0.00    -0.243 NA
ATOM     10  C   UNL     1      33.657 -23.658 -15.775  0.00  0.00    +0.152 C 
ATOM     11  C   UNL     1      32.964 -24.255 -13.774  0.00  0.00    +0.223 C 
ATOM     12  C   UNL     1      32.290 -23.474 -15.639  0.00  0.00    +0.112 C 
ATOM     13  C   UNL     1      31.611 -22.966 -16.741  0.00  0.00    +0.175 C 
ATOM     14  C   UNL     1      33.640 -22.911 -17.856  0.00  0.00    +0.196 C 
ENDBRANCH   3   6
BRANCH   2  15
ATOM     15  O2* UNL     1      35.794 -26.808 -14.952  0.00  0.00    -0.378 OA
ATOM     16  H2* UNL     1      35.970 -27.329 -15.751  0.00  0.00    +0.211 HD
ENDBRANCH   2  15
BRANCH   4  17
ATOM     17  O3* UNL     1      38.007 -25.803 -13.737  0.00  0.00    -0.379 OA
ATOM     18  H3* UNL     1      37.509 -25.453 -12.982  0.00  0.00    +0.211 HD
ENDBRANCH   4  17
BRANCH   5  19
ATOM     19  C5* UNL     1      37.746 -22.825 -15.953  0.00  0.00    +0.169 C 
BRANCH  19  20
ATOM     20  O5* UNL     1      36.731 -21.838 -16.011  0.00  0.00    -0.379 OA
ATOM     21  H5* UNL     1      37.122 -20.987 -16.260  0.00  0.00    +0.211 HD
ENDBRANCH  19  20
ENDBRANCH   5  19
TORSDOF 5
ENDMDL
