MODEL 1
REMARK VINA RESULT:     -10.1      0.000      0.000
REMARK  Name = 5329102
REMARK  7 active torsions:
REMARK  status: ('A' for Active; 'I' for Inactive)
REMARK    1  A    between atoms: C_2  and  C_24
REMARK    2  A    between atoms: C_4  and  C_13
REMARK    3  A    between atoms: N_23  and  C_26
REMARK    4  A    between atoms: C_26  and  C_27
REMARK    5  A    between atoms: C_27  and  N_28
REMARK    6  A    between atoms: N_28  and  C_30
REMARK    7  A    between atoms: N_28  and  C_32
REMARK                            x       y       z     vdW  Elec       q    Type
REMARK                         _______ _______ _______ _____ _____    ______ ____
ROOT
ATOM      1  N   UNL     1      35.990 -19.159 -20.754  0.00  0.00    -0.357 N 
ATOM      2  C   UNL     1      34.786 -20.885 -20.042  0.00  0.00    +0.062 A 
ATOM      3  C   UNL     1      33.904 -19.885 -20.519  0.00  0.00    -0.001 A 
ATOM      4  C   UNL     1      34.681 -18.855 -20.942  0.00  0.00    +0.053 A 
ATOM      5  C   UNL     1      36.070 -20.410 -20.199  0.00  0.00    +0.038 A 
ATOM      6  C   UNL     1      32.428 -19.959 -20.546  0.00  0.00    +0.033 C 
ATOM      7  C   UNL     1      37.377 -21.016 -19.879  0.00  0.00    +0.050 C 
ATOM      8  H   UNL     1      36.753 -18.579 -20.980  0.00  0.00    +0.166 HD
ENDROOT
BRANCH   4  13
ATOM      9  F   UNL     1      33.256 -12.543 -23.608  0.00  0.00    -0.204 F 
ATOM     10  O   UNL     1      34.803 -19.553 -23.687  0.00  0.00    -0.270 OA
ATOM     11  N   UNL     1      34.376 -17.697 -25.084  0.00  0.00    -0.280 N 
ATOM     12  C   UNL     1      34.321 -17.328 -22.827  0.00  0.00    +0.056 C 
ATOM     13  C   UNL     1      34.390 -17.574 -21.517  0.00  0.00    +0.021 C 
ATOM     14  C   UNL     1      34.034 -16.066 -23.501  0.00  0.00    +0.020 C 
ATOM     15  C   UNL     1      34.080 -16.346 -24.869  0.00  0.00    +0.051 C 
ATOM     16  C   UNL     1      34.541 -18.379 -23.875  0.00  0.00    +0.250 C 
ATOM     17  C   UNL     1      33.758 -14.788 -23.050  0.00  0.00    +0.031 C 
ATOM     18  C   UNL     1      33.855 -15.380 -25.829  0.00  0.00    +0.017 C 
ATOM     19  C   UNL     1      33.527 -13.793 -24.007  0.00  0.00    +0.140 C 
ATOM     20  C   UNL     1      33.576 -14.086 -25.383  0.00  0.00    +0.031 C 
ATOM     21  H   UNL     1      34.457 -18.113 -25.973  0.00  0.00    +0.155 HD
ENDBRANCH   4  13
BRANCH   2  24
ATOM     22  O   UNL     1      34.775 -23.242 -20.039  0.00  0.00    -0.270 OA
ATOM     23  N   UNL     1      33.762 -22.169 -18.267  0.00  0.00    -0.303 N 
ATOM     24  C   UNL     1      34.452 -22.168 -19.491  0.00  0.00    +0.247 C 
ATOM     25  H   UNL     1      33.524 -21.304 -17.864  0.00  0.00    +0.150 HD
BRANCH  23  26
ATOM     26  C   UNL     1      33.381 -23.378 -17.571  0.00  0.00    +0.067 C 
BRANCH  26  27
ATOM     27  C   UNL     1      33.712 -23.289 -16.089  0.00  0.00    -0.056 C 
BRANCH  27  28
ATOM     28  N   UNL     1      35.078 -23.735 -15.847  0.00  0.00    +0.388 N 
ATOM     29  H   UNL     1      35.451 -24.102 -16.723  0.00  0.00    -0.080 HD
BRANCH  28  30
ATOM     30  C   UNL     1      35.102 -24.804 -14.847  0.00  0.00    -0.077 C 
ATOM     31  C   UNL     1      36.276 -25.742 -15.073  0.00  0.00    -0.025 C 
ENDBRANCH  28  30
BRANCH  28  32
ATOM     32  C   UNL     1      35.918 -22.617 -15.416  0.00  0.00    -0.077 C 
ATOM     33  C   UNL     1      36.954 -22.269 -16.471  0.00  0.00    -0.025 C 
ENDBRANCH  28  32
ENDBRANCH  27  28
ENDBRANCH  26  27
ENDBRANCH  23  26
ENDBRANCH   2  24
TORSDOF 7
ENDMDL
MODEL 2
REMARK VINA RESULT:      -9.9      1.520      2.404
REMARK  Name = 5329102
REMARK  7 active torsions:
REMARK  status: ('A' for Active; 'I' for Inactive)
REMARK    1  A    between atoms: C_2  and  C_24
REMARK    2  A    between atoms: C_4  and  C_13
REMARK    3  A    between atoms: N_23  and  C_26
REMARK    4  A    between atoms: C_26  and  C_27
REMARK    5  A    between atoms: C_27  and  N_28
REMARK    6  A    between atoms: N_28  and  C_30
REMARK    7  A    between atoms: N_28  and  C_32
REMARK                            x       y       z     vdW  Elec       q    Type
REMARK                         _______ _______ _______ _____ _____    ______ ____
ROOT
ATOM      1  N   UNL     1      35.955 -19.442 -20.656  0.00  0.00    -0.357 N 
ATOM      2  C   UNL     1      34.652 -21.099 -19.955  0.00  0.00    +0.062 A 
ATOM      3  C   UNL     1      33.830 -20.042 -20.416  0.00  0.00    -0.001 A 
ATOM      4  C   UNL     1      34.666 -19.057 -20.833  0.00  0.00    +0.053 A 
ATOM      5  C   UNL     1      35.962 -20.701 -20.114  0.00  0.00    +0.038 A 
ATOM      6  C   UNL     1      32.352 -20.027 -20.435  0.00  0.00    +0.033 C 
ATOM      7  C   UNL     1      37.232 -21.388 -19.808  0.00  0.00    +0.050 C 
ATOM      8  H   UNL     1      36.751 -18.907 -20.880  0.00  0.00    +0.166 HD
ENDROOT
BRANCH   4  13
ATOM      9  F   UNL     1      33.612 -12.643 -23.425  0.00  0.00    -0.204 F 
ATOM     10  O   UNL     1      34.717 -19.734 -23.586  0.00  0.00    -0.270 OA
ATOM     11  N   UNL     1      34.393 -17.841 -24.961  0.00  0.00    -0.280 N 
ATOM     12  C   UNL     1      34.384 -17.492 -22.699  0.00  0.00    +0.056 C 
ATOM     13  C   UNL     1      34.450 -17.755 -21.393  0.00  0.00    +0.021 C 
ATOM     14  C   UNL     1      34.169 -16.208 -23.358  0.00  0.00    +0.020 C 
ATOM     15  C   UNL     1      34.185 -16.477 -24.730  0.00  0.00    +0.051 C 
ATOM     16  C   UNL     1      34.527 -18.544 -23.760  0.00  0.00    +0.250 C 
ATOM     17  C   UNL     1      33.977 -14.920 -22.893  0.00  0.00    +0.031 C 
ATOM     18  C   UNL     1      34.011 -15.489 -25.679  0.00  0.00    +0.017 C 
ATOM     19  C   UNL     1      33.800 -13.903 -23.838  0.00  0.00    +0.140 C 
ATOM     20  C   UNL     1      33.817 -14.185 -25.217  0.00  0.00    +0.031 C 
ATOM     21  H   UNL     1      34.440 -18.253 -25.854  0.00  0.00    +0.155 HD
ENDBRANCH   4  13
BRANCH   2  24
ATOM     22  O   UNL     1      34.345 -23.434 -20.052  0.00  0.00    -0.270 OA
ATOM     23  N   UNL     1      33.748 -22.361 -18.101  0.00  0.00    -0.303 N 
ATOM     24  C   UNL     1      34.245 -22.366 -19.414  0.00  0.00    +0.247 C 
ATOM     25  H   UNL     1      33.683 -21.500 -17.629  0.00  0.00    +0.150 HD
BRANCH  23  26
ATOM     26  C   UNL     1      33.325 -23.557 -17.407  0.00  0.00    +0.067 C 
BRANCH  26  27
ATOM     27  C   UNL     1      32.876 -23.243 -15.988  0.00  0.00    -0.056 C 
BRANCH  27  28
ATOM     28  N   UNL     1      31.520 -23.726 -15.766  0.00  0.00    +0.388 N 
ATOM     29  H   UNL     1      31.449 -24.663 -16.163  0.00  0.00    -0.080 HD
BRANCH  28  30
ATOM     30  C   UNL     1      30.548 -22.862 -16.438  0.00  0.00    -0.077 C 
ATOM     31  C   UNL     1      29.263 -22.752 -15.635  0.00  0.00    -0.025 C 
ENDBRANCH  28  30
BRANCH  28  32
ATOM     32  C   UNL     1      31.226 -23.803 -14.334  0.00  0.00    -0.077 C 
ATOM     33  C   UNL     1      31.771 -25.086 -13.729  0.00  0.00    -0.025 C 
ENDBRANCH  28  32
ENDBRANCH  27  28
ENDBRANCH  26  27
ENDBRANCH  23  26
ENDBRANCH   2  24
TORSDOF 7
ENDMDL
MODEL 3
REMARK VINA RESULT:      -9.8      3.149      9.411
REMARK  Name = 5329102
REMARK  7 active torsions:
REMARK  status: ('A' for Active; 'I' for Inactive)
REMARK    1  A    between atoms: C_2  and  C_24
REMARK    2  A    between atoms: C_4  and  C_13
REMARK    3  A    between atoms: N_23  and  C_26
REMARK    4  A    between atoms: C_26  and  C_27
REMARK    5  A    between atoms: C_27  and  N_28
REMARK    6  A    between atoms: N_28  and  C_30
REMARK    7  A    between atoms: N_28  and  C_32
REMARK                            x       y       z     vdW  Elec       q    Type
REMARK                         _______ _______ _______ _____ _____    ______ ____
ROOT
ATOM      1  N   UNL     1      35.089 -19.783 -22.861  0.00  0.00    -0.357 N 
ATOM      2  C   UNL     1      34.862 -17.596 -23.180  0.00  0.00    +0.062 A 
ATOM      3  C   UNL     1      35.100 -17.830 -21.804  0.00  0.00    -0.001 A 
ATOM      4  C   UNL     1      35.232 -19.173 -21.658  0.00  0.00    +0.053 A 
ATOM      5  C   UNL     1      34.860 -18.822 -23.811  0.00  0.00    +0.038 A 
ATOM      6  C   UNL     1      35.185 -16.804 -20.743  0.00  0.00    +0.033 C 
ATOM      7  C   UNL     1      34.664 -19.187 -25.228  0.00  0.00    +0.050 C 
ATOM      8  H   UNL     1      35.143 -20.753 -23.024  0.00  0.00    +0.166 HD
ENDROOT
BRANCH   4  13
ATOM      9  F   UNL     1      36.588 -23.267 -16.146  0.00  0.00    -0.204 F 
ATOM     10  O   UNL     1      32.605 -20.155 -21.243  0.00  0.00    -0.270 OA
ATOM     11  N   UNL     1      32.504 -21.649 -19.416  0.00  0.00    -0.280 N 
ATOM     12  C   UNL     1      34.550 -20.749 -19.907  0.00  0.00    +0.056 C 
ATOM     13  C   UNL     1      35.480 -20.020 -20.528  0.00  0.00    +0.021 C 
ATOM     14  C   UNL     1      34.707 -21.635 -18.758  0.00  0.00    +0.020 C 
ATOM     15  C   UNL     1      33.435 -22.154 -18.502  0.00  0.00    +0.051 C 
ATOM     16  C   UNL     1      33.108 -20.772 -20.322  0.00  0.00    +0.250 C 
ATOM     17  C   UNL     1      35.788 -21.996 -17.975  0.00  0.00    +0.031 C 
ATOM     18  C   UNL     1      33.193 -23.042 -17.472  0.00  0.00    +0.017 C 
ATOM     19  C   UNL     1      35.565 -22.893 -16.926  0.00  0.00    +0.140 C 
ATOM     20  C   UNL     1      34.280 -23.412 -16.677  0.00  0.00    +0.031 C 
ATOM     21  H   UNL     1      31.548 -21.882 -19.421  0.00  0.00    +0.155 HD
ENDBRANCH   4  13
BRANCH   2  24
ATOM     22  O   UNL     1      35.264 -15.298 -23.516  0.00  0.00    -0.270 OA
ATOM     23  N   UNL     1      33.745 -16.329 -24.911  0.00  0.00    -0.303 N 
ATOM     24  C   UNL     1      34.655 -16.338 -23.841  0.00  0.00    +0.247 C 
ATOM     25  H   UNL     1      33.283 -17.167 -25.139  0.00  0.00    +0.150 HD
BRANCH  23  26
ATOM     26  C   UNL     1      33.451 -15.149 -25.693  0.00  0.00    +0.067 C 
BRANCH  26  27
ATOM     27  C   UNL     1      32.633 -14.146 -24.893  0.00  0.00    -0.056 C 
BRANCH  27  28
ATOM     28  N   UNL     1      33.510 -13.182 -24.243  0.00  0.00    +0.388 N 
ATOM     29  H   UNL     1      34.382 -13.655 -24.006  0.00  0.00    -0.080 HD
BRANCH  28  30
ATOM     30  C   UNL     1      32.902 -12.681 -23.009  0.00  0.00    -0.077 C 
ATOM     31  C   UNL     1      32.362 -13.820 -22.161  0.00  0.00    -0.025 C 
ENDBRANCH  28  30
BRANCH  28  32
ATOM     32  C   UNL     1      33.815 -12.070 -25.145  0.00  0.00    -0.077 C 
ATOM     33  C   UNL     1      33.965 -10.766 -24.380  0.00  0.00    -0.025 C 
ENDBRANCH  28  32
ENDBRANCH  27  28
ENDBRANCH  26  27
ENDBRANCH  23  26
ENDBRANCH   2  24
TORSDOF 7
ENDMDL
MODEL 4
REMARK VINA RESULT:      -9.8      3.369      9.068
REMARK  Name = 5329102
REMARK  7 active torsions:
REMARK  status: ('A' for Active; 'I' for Inactive)
REMARK    1  A    between atoms: C_2  and  C_24
REMARK    2  A    between atoms: C_4  and  C_13
REMARK    3  A    between atoms: N_23  and  C_26
REMARK    4  A    between atoms: C_26  and  C_27
REMARK    5  A    between atoms: C_27  and  N_28
REMARK    6  A    between atoms: N_28  and  C_30
REMARK    7  A    between atoms: N_28  and  C_32
REMARK                            x       y       z     vdW  Elec       q    Type
REMARK                         _______ _______ _______ _____ _____    ______ ____
ROOT
ATOM      1  N   UNL     1      35.011 -19.828 -22.908  0.00  0.00    -0.357 N 
ATOM      2  C   UNL     1      34.717 -17.660 -23.290  0.00  0.00    +0.062 A 
ATOM      3  C   UNL     1      35.069 -17.835 -21.930  0.00  0.00    -0.001 A 
ATOM      4  C   UNL     1      35.238 -19.169 -21.744  0.00  0.00    +0.053 A 
ATOM      5  C   UNL     1      34.688 -18.909 -23.872  0.00  0.00    +0.038 A 
ATOM      6  C   UNL     1      35.220 -16.767 -20.919  0.00  0.00    +0.033 C 
ATOM      7  C   UNL     1      34.386 -19.332 -25.253  0.00  0.00    +0.050 C 
ATOM      8  H   UNL     1      35.070 -20.803 -23.038  0.00  0.00    +0.166 HD
ENDROOT
BRANCH   4  13
ATOM      9  F   UNL     1      37.111 -23.015 -16.205  0.00  0.00    -0.204 F 
ATOM     10  O   UNL     1      32.699 -20.293 -21.170  0.00  0.00    -0.270 OA
ATOM     11  N   UNL     1      32.780 -21.737 -19.303  0.00  0.00    -0.280 N 
ATOM     12  C   UNL     1      34.741 -20.731 -19.920  0.00  0.00    +0.056 C 
ATOM     13  C   UNL     1      35.592 -19.968 -20.607  0.00  0.00    +0.021 C 
ATOM     14  C   UNL     1      35.008 -21.573 -18.759  0.00  0.00    +0.020 C 
ATOM     15  C   UNL     1      33.784 -22.159 -18.424  0.00  0.00    +0.051 C 
ATOM     16  C   UNL     1      33.284 -20.852 -20.261  0.00  0.00    +0.250 C 
ATOM     17  C   UNL     1      36.146 -21.846 -18.023  0.00  0.00    +0.031 C 
ATOM     18  C   UNL     1      33.647 -23.030 -17.361  0.00  0.00    +0.017 C 
ATOM     19  C   UNL     1      36.030 -22.725 -16.941  0.00  0.00    +0.140 C 
ATOM     20  C   UNL     1      34.793 -23.311 -16.613  0.00  0.00    +0.031 C 
ATOM     21  H   UNL     1      31.840 -22.026 -19.253  0.00  0.00    +0.155 HD
ENDBRANCH   4  13
BRANCH   2  24
ATOM     22  O   UNL     1      34.966 -16.132 -25.067  0.00  0.00    -0.270 OA
ATOM     23  N   UNL     1      33.489 -15.579 -23.386  0.00  0.00    -0.303 N 
ATOM     24  C   UNL     1      34.433 -16.432 -23.979  0.00  0.00    +0.247 C 
ATOM     25  H   UNL     1      33.090 -15.848 -22.528  0.00  0.00    +0.150 HD
BRANCH  23  26
ATOM     26  C   UNL     1      33.076 -14.322 -23.970  0.00  0.00    +0.067 C 
BRANCH  26  27
ATOM     27  C   UNL     1      33.234 -13.175 -22.983  0.00  0.00    -0.056 C 
BRANCH  27  28
ATOM     28  N   UNL     1      32.121 -13.159 -22.044  0.00  0.00    +0.388 N 
ATOM     29  H   UNL     1      31.452 -13.872 -22.333  0.00  0.00    -0.080 HD
BRANCH  28  30
ATOM     30  C   UNL     1      31.450 -11.857 -22.062  0.00  0.00    -0.077 C 
ATOM     31  C   UNL     1      31.160 -11.369 -20.653  0.00  0.00    -0.025 C 
ENDBRANCH  28  30
BRANCH  28  32
ATOM     32  C   UNL     1      32.581 -13.473 -20.690  0.00  0.00    -0.077 C 
ATOM     33  C   UNL     1      32.265 -14.913 -20.322  0.00  0.00    -0.025 C 
ENDBRANCH  28  32
ENDBRANCH  27  28
ENDBRANCH  26  27
ENDBRANCH  23  26
ENDBRANCH   2  24
TORSDOF 7
ENDMDL
MODEL 5
REMARK VINA RESULT:      -9.8      1.951      2.878
REMARK  Name = 5329102
REMARK  7 active torsions:
REMARK  status: ('A' for Active; 'I' for Inactive)
REMARK    1  A    between atoms: C_2  and  C_24
REMARK    2  A    between atoms: C_4  and  C_13
REMARK    3  A    between atoms: N_23  and  C_26
REMARK    4  A    between atoms: C_26  and  C_27
REMARK    5  A    between atoms: C_27  and  N_28
REMARK    6  A    between atoms: N_28  and  C_30
REMARK    7  A    between atoms: N_28  and  C_32
REMARK                            x       y       z     vdW  Elec       q    Type
REMARK                         _______ _______ _______ _____ _____    ______ ____
ROOT
ATOM      1  N   UNL     1      33.680 -19.505 -21.217  0.00  0.00    -0.357 N 
ATOM      2  C   UNL     1      35.572 -20.330 -20.396  0.00  0.00    +0.062 A 
ATOM      3  C   UNL     1      35.890 -19.334 -21.352  0.00  0.00    -0.001 A 
ATOM      4  C   UNL     1      34.709 -18.861 -21.823  0.00  0.00    +0.053 A 
ATOM      5  C   UNL     1      34.198 -20.415 -20.332  0.00  0.00    +0.038 A 
ATOM      6  C   UNL     1      37.247 -18.904 -21.748  0.00  0.00    +0.033 C 
ATOM      7  C   UNL     1      33.312 -21.271 -19.519  0.00  0.00    +0.050 C 
ATOM      8  H   UNL     1      32.723 -19.344 -21.383  0.00  0.00    +0.166 HD
ENDROOT
BRANCH   4  13
ATOM      9  F   UNL     1      33.006 -14.096 -26.658  0.00  0.00    -0.204 F 
ATOM     10  O   UNL     1      34.995 -16.547 -20.210  0.00  0.00    -0.270 OA
ATOM     11  N   UNL     1      34.514 -14.572 -21.415  0.00  0.00    -0.280 N 
ATOM     12  C   UNL     1      34.337 -16.549 -22.553  0.00  0.00    +0.056 C 
ATOM     13  C   UNL     1      34.365 -17.862 -22.792  0.00  0.00    +0.021 C 
ATOM     14  C   UNL     1      34.002 -15.465 -23.471  0.00  0.00    +0.020 C 
ATOM     15  C   UNL     1      34.125 -14.287 -22.728  0.00  0.00    +0.051 C 
ATOM     16  C   UNL     1      34.669 -15.948 -21.219  0.00  0.00    +0.250 C 
ATOM     17  C   UNL     1      33.625 -15.426 -24.800  0.00  0.00    +0.031 C 
ATOM     18  C   UNL     1      33.882 -13.042 -23.273  0.00  0.00    +0.017 C 
ATOM     19  C   UNL     1      33.374 -14.174 -25.372  0.00  0.00    +0.140 C 
ATOM     20  C   UNL     1      33.501 -12.993 -24.616  0.00  0.00    +0.031 C 
ATOM     21  H   UNL     1      34.661 -13.892 -20.718  0.00  0.00    +0.155 HD
ENDBRANCH   4  13
BRANCH   2  24
ATOM     22  O   UNL     1      37.322 -21.886 -20.130  0.00  0.00    -0.270 OA
ATOM     23  N   UNL     1      36.389 -20.995 -18.219  0.00  0.00    -0.303 N 
ATOM     24  C   UNL     1      36.475 -21.127 -19.615  0.00  0.00    +0.247 C 
ATOM     25  H   UNL     1      35.710 -20.388 -17.848  0.00  0.00    +0.150 HD
BRANCH  23  26
ATOM     26  C   UNL     1      37.248 -21.707 -17.299  0.00  0.00    +0.067 C 
BRANCH  26  27
ATOM     27  C   UNL     1      36.489 -22.130 -16.050  0.00  0.00    -0.056 C 
BRANCH  27  28
ATOM     28  N   UNL     1      36.525 -23.578 -15.902  0.00  0.00    +0.388 N 
ATOM     29  H   UNL     1      36.687 -23.987 -16.822  0.00  0.00    -0.080 HD
BRANCH  28  30
ATOM     30  C   UNL     1      35.248 -24.077 -15.389  0.00  0.00    -0.077 C 
ATOM     31  C   UNL     1      34.079 -23.323 -15.999  0.00  0.00    -0.025 C 
ENDBRANCH  28  30
BRANCH  28  32
ATOM     32  C   UNL     1      37.619 -23.980 -15.016  0.00  0.00    -0.077 C 
ATOM     33  C   UNL     1      37.663 -25.490 -14.847  0.00  0.00    -0.025 C 
ENDBRANCH  28  32
ENDBRANCH  27  28
ENDBRANCH  26  27
ENDBRANCH  23  26
ENDBRANCH   2  24
TORSDOF 7
ENDMDL
MODEL 6
REMARK VINA RESULT:      -9.7      4.029      7.330
REMARK  Name = 5329102
REMARK  7 active torsions:
REMARK  status: ('A' for Active; 'I' for Inactive)
REMARK    1  A    between atoms: C_2  and  C_24
REMARK    2  A    between atoms: C_4  and  C_13
REMARK    3  A    between atoms: N_23  and  C_26
REMARK    4  A    between atoms: C_26  and  C_27
REMARK    5  A    between atoms: C_27  and  N_28
REMARK    6  A    between atoms: N_28  and  C_30
REMARK    7  A    between atoms: N_28  and  C_32
REMARK                            x       y       z     vdW  Elec       q    Type
REMARK                         _______ _______ _______ _____ _____    ______ ____
ROOT
ATOM      1  N   UNL     1      32.696 -13.467 -24.913  0.00  0.00    -0.357 N 
ATOM      2  C   UNL     1      33.891 -15.245 -24.328  0.00  0.00    +0.062 A 
ATOM      3  C   UNL     1      33.909 -14.316 -23.259  0.00  0.00    -0.001 A 
ATOM      4  C   UNL     1      33.169 -13.252 -23.660  0.00  0.00    +0.053 A 
ATOM      5  C   UNL     1      33.134 -14.694 -25.339  0.00  0.00    +0.038 A 
ATOM      6  C   UNL     1      34.601 -14.486 -21.963  0.00  0.00    +0.033 C 
ATOM      7  C   UNL     1      32.776 -15.206 -26.676  0.00  0.00    +0.050 C 
ATOM      8  H   UNL     1      32.131 -12.846 -25.429  0.00  0.00    +0.166 HD
ENDROOT
BRANCH   4  13
ATOM      9  F   UNL     1      31.351  -7.263 -20.529  0.00  0.00    -0.204 F 
ATOM     10  O   UNL     1      34.717 -11.491 -25.253  0.00  0.00    -0.270 OA
ATOM     11  N   UNL     1      34.454  -9.241 -24.585  0.00  0.00    -0.280 N 
ATOM     12  C   UNL     1      33.278 -10.815 -23.411  0.00  0.00    +0.056 C 
ATOM     13  C   UNL     1      32.815 -12.009 -23.039  0.00  0.00    +0.021 C 
ATOM     14  C   UNL     1      32.976  -9.505 -22.843  0.00  0.00    +0.020 C 
ATOM     15  C   UNL     1      33.716  -8.586 -23.592  0.00  0.00    +0.051 C 
ATOM     16  C   UNL     1      34.242 -10.622 -24.545  0.00  0.00    +0.250 C 
ATOM     17  C   UNL     1      32.170  -9.082 -21.803  0.00  0.00    +0.031 C 
ATOM     18  C   UNL     1      33.682  -7.229 -23.339  0.00  0.00    +0.017 C 
ATOM     19  C   UNL     1      32.122  -7.711 -21.529  0.00  0.00    +0.140 C 
ATOM     20  C   UNL     1      32.870  -6.793 -22.290  0.00  0.00    +0.031 C 
ATOM     21  H   UNL     1      35.045  -8.787 -25.228  0.00  0.00    +0.155 HD
ENDBRANCH   4  13
BRANCH   2  24
ATOM     22  O   UNL     1      34.704 -17.141 -25.468  0.00  0.00    -0.270 OA
ATOM     23  N   UNL     1      34.982 -17.073 -23.180  0.00  0.00    -0.303 N 
ATOM     24  C   UNL     1      34.528 -16.531 -24.394  0.00  0.00    +0.247 C 
ATOM     25  H   UNL     1      34.825 -16.564 -22.353  0.00  0.00    +0.150 HD
BRANCH  23  26
ATOM     26  C   UNL     1      35.667 -18.343 -23.085  0.00  0.00    +0.067 C 
BRANCH  26  27
ATOM     27  C   UNL     1      34.789 -19.395 -22.421  0.00  0.00    -0.056 C 
BRANCH  27  28
ATOM     28  N   UNL     1      35.007 -19.400 -20.981  0.00  0.00    +0.388 N 
ATOM     29  H   UNL     1      34.818 -18.461 -20.628  0.00  0.00    -0.080 HD
BRANCH  28  30
ATOM     30  C   UNL     1      36.397 -19.742 -20.670  0.00  0.00    -0.077 C 
ATOM     31  C   UNL     1      36.480 -21.031 -19.871  0.00  0.00    -0.025 C 
ENDBRANCH  28  30
BRANCH  28  32
ATOM     32  C   UNL     1      34.095 -20.337 -20.323  0.00  0.00    -0.077 C 
ATOM     33  C   UNL     1      32.646 -20.004 -20.635  0.00  0.00    -0.025 C 
ENDBRANCH  28  32
ENDBRANCH  27  28
ENDBRANCH  26  27
ENDBRANCH  23  26
ENDBRANCH   2  24
TORSDOF 7
ENDMDL
MODEL 7
REMARK VINA RESULT:      -9.7      5.832     12.117
REMARK  Name = 5329102
REMARK  7 active torsions:
REMARK  status: ('A' for Active; 'I' for Inactive)
REMARK    1  A    between atoms: C_2  and  C_24
REMARK    2  A    between atoms: C_4  and  C_13
REMARK    3  A    between atoms: N_23  and  C_26
REMARK    4  A    between atoms: C_26  and  C_27
REMARK    5  A    between atoms: C_27  and  N_28
REMARK    6  A    between atoms: N_28  and  C_30
REMARK    7  A    between atoms: N_28  and  C_32
REMARK                            x       y       z     vdW  Elec       q    Type
REMARK                         _______ _______ _______ _____ _____    ______ ____
ROOT
ATOM      1  N   UNL     1      31.891 -13.029 -22.219  0.00  0.00    -0.357 N 
ATOM      2  C   UNL     1      32.358 -10.963 -22.890  0.00  0.00    +0.062 A 
ATOM      3  C   UNL     1      33.121 -11.872 -23.662  0.00  0.00    -0.001 A 
ATOM      4  C   UNL     1      32.804 -13.115 -23.220  0.00  0.00    +0.053 A 
ATOM      5  C   UNL     1      31.607 -11.705 -22.004  0.00  0.00    +0.038 A 
ATOM      6  C   UNL     1      34.072 -11.523 -24.739  0.00  0.00    +0.033 C 
ATOM      7  C   UNL     1      30.639 -11.296 -20.967  0.00  0.00    +0.050 C 
ATOM      8  H   UNL     1      31.499 -13.789 -21.731  0.00  0.00    +0.166 HD
ENDROOT
BRANCH   4  13
ATOM      9  F   UNL     1      34.839 -19.519 -25.179  0.00  0.00    -0.204 F 
ATOM     10  O   UNL     1      34.013 -13.906 -20.780  0.00  0.00    -0.270 OA
ATOM     11  N   UNL     1      34.901 -16.092 -20.908  0.00  0.00    -0.280 N 
ATOM     12  C   UNL     1      33.881 -15.276 -22.788  0.00  0.00    +0.056 C 
ATOM     13  C   UNL     1      33.232 -14.432 -23.592  0.00  0.00    +0.021 C 
ATOM     14  C   UNL     1      34.353 -16.626 -23.076  0.00  0.00    +0.020 C 
ATOM     15  C   UNL     1      34.965 -17.074 -21.902  0.00  0.00    +0.051 C 
ATOM     16  C   UNL     1      34.246 -14.946 -21.370  0.00  0.00    +0.250 C 
ATOM     17  C   UNL     1      34.298 -17.434 -24.197  0.00  0.00    +0.031 C 
ATOM     18  C   UNL     1      35.537 -18.327 -21.798  0.00  0.00    +0.017 C 
ATOM     19  C   UNL     1      34.873 -18.707 -24.114  0.00  0.00    +0.140 C 
ATOM     20  C   UNL     1      35.485 -19.149 -22.926  0.00  0.00    +0.031 C 
ATOM     21  H   UNL     1      35.268 -16.194 -20.000  0.00  0.00    +0.155 HD
ENDBRANCH   4  13
BRANCH   2  24
ATOM     22  O   UNL     1      31.302  -8.886 -23.243  0.00  0.00    -0.270 OA
ATOM     23  N   UNL     1      33.545  -8.864 -22.709  0.00  0.00    -0.303 N 
ATOM     24  C   UNL     1      32.337  -9.530 -22.975  0.00  0.00    +0.247 C 
ATOM     25  H   UNL     1      34.341  -9.404 -22.502  0.00  0.00    +0.150 HD
BRANCH  23  26
ATOM     26  C   UNL     1      33.679  -7.424 -22.727  0.00  0.00    +0.067 C 
BRANCH  26  27
ATOM     27  C   UNL     1      33.341  -6.856 -24.097  0.00  0.00    -0.056 C 
BRANCH  27  28
ATOM     28  N   UNL     1      32.129  -6.050 -24.026  0.00  0.00    +0.388 N 
ATOM     29  H   UNL     1      31.331  -6.663 -24.197  0.00  0.00    -0.080 HD
BRANCH  28  30
ATOM     30  C   UNL     1      32.142  -5.007 -25.053  0.00  0.00    -0.077 C 
ATOM     31  C   UNL     1      33.277  -5.220 -26.039  0.00  0.00    -0.025 C 
ENDBRANCH  28  30
BRANCH  28  32
ATOM     32  C   UNL     1      31.982  -5.453 -22.698  0.00  0.00    -0.077 C 
ATOM     33  C   UNL     1      30.535  -5.489 -22.236  0.00  0.00    -0.025 C 
ENDBRANCH  28  32
ENDBRANCH  27  28
ENDBRANCH  26  27
ENDBRANCH  23  26
ENDBRANCH   2  24
TORSDOF 7
ENDMDL
MODEL 8
REMARK VINA RESULT:      -9.4      4.847     10.843
REMARK  Name = 5329102
REMARK  7 active torsions:
REMARK  status: ('A' for Active; 'I' for Inactive)
REMARK    1  A    between atoms: C_2  and  C_24
REMARK    2  A    between atoms: C_4  and  C_13
REMARK    3  A    between atoms: N_23  and  C_26
REMARK    4  A    between atoms: C_26  and  C_27
REMARK    5  A    between atoms: C_27  and  N_28
REMARK    6  A    between atoms: N_28  and  C_30
REMARK    7  A    between atoms: N_28  and  C_32
REMARK                            x       y       z     vdW  Elec       q    Type
REMARK                         _______ _______ _______ _____ _____    ______ ____
ROOT
ATOM      1  N   UNL     1      33.153 -15.064 -23.866  0.00  0.00    -0.357 N 
ATOM      2  C   UNL     1      33.026 -12.953 -23.188  0.00  0.00    +0.062 A 
ATOM      3  C   UNL     1      32.923 -13.798 -22.057  0.00  0.00    -0.001 A 
ATOM      4  C   UNL     1      33.006 -15.072 -22.517  0.00  0.00    +0.053 A 
ATOM      5  C   UNL     1      33.166 -13.763 -24.295  0.00  0.00    +0.038 A 
ATOM      6  C   UNL     1      32.760 -13.365 -20.653  0.00  0.00    +0.033 C 
ATOM      7  C   UNL     1      33.313 -13.437 -25.727  0.00  0.00    +0.050 C 
ATOM      8  H   UNL     1      33.236 -15.860 -24.440  0.00  0.00    +0.166 HD
ENDROOT
BRANCH   4  13
ATOM      9  F   UNL     1      32.671 -21.310 -19.363  0.00  0.00    -0.204 F 
ATOM     10  O   UNL     1      35.682 -15.888 -22.977  0.00  0.00    -0.270 OA
ATOM     11  N   UNL     1      36.116 -18.026 -22.071  0.00  0.00    -0.280 N 
ATOM     12  C   UNL     1      34.001 -17.195 -21.799  0.00  0.00    +0.056 C 
ATOM     13  C   UNL     1      32.968 -16.354 -21.878  0.00  0.00    +0.021 C 
ATOM     14  C   UNL     1      34.057 -18.512 -21.172  0.00  0.00    +0.020 C 
ATOM     15  C   UNL     1      35.362 -18.971 -21.367  0.00  0.00    +0.051 C 
ATOM     16  C   UNL     1      35.353 -16.895 -22.378  0.00  0.00    +0.250 C 
ATOM     17  C   UNL     1      33.129 -19.284 -20.499  0.00  0.00    +0.031 C 
ATOM     18  C   UNL     1      35.790 -20.200 -20.904  0.00  0.00    +0.017 C 
ATOM     19  C   UNL     1      33.541 -20.533 -20.022  0.00  0.00    +0.140 C 
ATOM     20  C   UNL     1      34.859 -20.986 -20.222  0.00  0.00    +0.031 C 
ATOM     21  H   UNL     1      37.063 -18.141 -22.317  0.00  0.00    +0.155 HD
ENDBRANCH   4  13
BRANCH   2  24
ATOM     22  O   UNL     1      33.867 -10.840 -23.806  0.00  0.00    -0.270 OA
ATOM     23  N   UNL     1      31.902 -10.894 -22.601  0.00  0.00    -0.303 N 
ATOM     24  C   UNL     1      32.994 -11.518 -23.227  0.00  0.00    +0.247 C 
ATOM     25  H   UNL     1      31.234 -11.460 -22.154  0.00  0.00    +0.150 HD
BRANCH  23  26
ATOM     26  C   UNL     1      31.713  -9.460 -22.578  0.00  0.00    +0.067 C 
BRANCH  26  27
ATOM     27  C   UNL     1      32.309  -8.844 -21.321  0.00  0.00    -0.056 C 
BRANCH  27  28
ATOM     28  N   UNL     1      32.917  -7.556 -21.628  0.00  0.00    +0.388 N 
ATOM     29  H   UNL     1      33.784  -7.480 -21.096  0.00  0.00    -0.080 HD
BRANCH  28  30
ATOM     30  C   UNL     1      32.031  -6.460 -21.231  0.00  0.00    -0.077 C 
ATOM     31  C   UNL     1      31.615  -5.628 -22.432  0.00  0.00    -0.025 C 
ENDBRANCH  28  30
BRANCH  28  32
ATOM     32  C   UNL     1      33.235  -7.461 -23.053  0.00  0.00    -0.077 C 
ATOM     33  C   UNL     1      34.734  -7.533 -23.288  0.00  0.00    -0.025 C 
ENDBRANCH  28  32
ENDBRANCH  27  28
ENDBRANCH  26  27
ENDBRANCH  23  26
ENDBRANCH   2  24
TORSDOF 7
ENDMDL
MODEL 9
REMARK VINA RESULT:      -9.4      4.157      9.734
REMARK  Name = 5329102
REMARK  7 active torsions:
REMARK  status: ('A' for Active; 'I' for Inactive)
REMARK    1  A    between atoms: C_2  and  C_24
REMARK    2  A    between atoms: C_4  and  C_13
REMARK    3  A    between atoms: N_23  and  C_26
REMARK    4  A    between atoms: C_26  and  C_27
REMARK    5  A    between atoms: C_27  and  N_28
REMARK    6  A    between atoms: N_28  and  C_30
REMARK    7  A    between atoms: N_28  and  C_32
REMARK                            x       y       z     vdW  Elec       q    Type
REMARK                         _______ _______ _______ _____ _____    ______ ____
ROOT
ATOM      1  N   UNL     1      34.619 -17.174 -23.464  0.00  0.00    -0.357 N 
ATOM      2  C   UNL     1      34.054 -15.070 -23.028  0.00  0.00    +0.062 A 
ATOM      3  C   UNL     1      34.474 -15.685 -21.823  0.00  0.00    -0.001 A 
ATOM      4  C   UNL     1      34.808 -16.962 -22.137  0.00  0.00    +0.053 A 
ATOM      5  C   UNL     1      34.154 -16.014 -24.027  0.00  0.00    +0.038 A 
ATOM      6  C   UNL     1      34.533 -15.049 -20.489  0.00  0.00    +0.033 C 
ATOM      7  C   UNL     1      33.854 -15.938 -25.470  0.00  0.00    +0.050 C 
ATOM      8  H   UNL     1      34.789 -18.018 -23.942  0.00  0.00    +0.166 HD
ENDROOT
BRANCH   4  13
ATOM      9  F   UNL     1      37.332 -22.313 -18.398  0.00  0.00    -0.204 F 
ATOM     10  O   UNL     1      32.351 -18.289 -21.643  0.00  0.00    -0.270 OA
ATOM     11  N   UNL     1      32.654 -20.249 -20.361  0.00  0.00    -0.280 N 
ATOM     12  C   UNL     1      34.531 -19.039 -20.863  0.00  0.00    +0.056 C 
ATOM     13  C   UNL     1      35.296 -18.070 -21.369  0.00  0.00    +0.021 C 
ATOM     14  C   UNL     1      34.935 -20.198 -20.074  0.00  0.00    +0.020 C 
ATOM     15  C   UNL     1      33.758 -20.898 -19.796  0.00  0.00    +0.051 C 
ATOM     16  C   UNL     1      33.041 -19.090 -21.040  0.00  0.00    +0.250 C 
ATOM     17  C   UNL     1      36.155 -20.657 -19.612  0.00  0.00    +0.031 C 
ATOM     18  C   UNL     1      33.748 -22.066 -19.059  0.00  0.00    +0.017 C 
ATOM     19  C   UNL     1      36.168 -21.838 -18.862  0.00  0.00    +0.140 C 
ATOM     20  C   UNL     1      34.977 -22.536 -18.589  0.00  0.00    +0.031 C 
ATOM     21  H   UNL     1      31.725 -20.568 -20.290  0.00  0.00    +0.155 HD
ENDBRANCH   4  13
BRANCH   2  24
ATOM     22  O   UNL     1      34.182 -12.918 -23.980  0.00  0.00    -0.270 OA
ATOM     23  N   UNL     1      32.437 -13.342 -22.534  0.00  0.00    -0.303 N 
ATOM     24  C   UNL     1      33.602 -13.722 -23.221  0.00  0.00    +0.247 C 
ATOM     25  H   UNL     1      32.006 -14.001 -21.944  0.00  0.00    +0.150 HD
BRANCH  23  26
ATOM     26  C   UNL     1      31.840 -12.029 -22.647  0.00  0.00    +0.067 C 
BRANCH  26  27
ATOM     27  C   UNL     1      31.274 -11.563 -21.314  0.00  0.00    -0.056 C 
BRANCH  27  28
ATOM     28  N   UNL     1      31.369 -10.114 -21.203  0.00  0.00    +0.388 N 
ATOM     29  H   UNL     1      30.441  -9.722 -21.366  0.00  0.00    -0.080 HD
BRANCH  28  30
ATOM     30  C   UNL     1      32.285  -9.577 -22.211  0.00  0.00    -0.077 C 
ATOM     31  C   UNL     1      32.772  -8.190 -21.828  0.00  0.00    -0.025 C 
ENDBRANCH  28  30
BRANCH  28  32
ATOM     32  C   UNL     1      31.807  -9.726 -19.861  0.00  0.00    -0.077 C 
ATOM     33  C   UNL     1      31.419 -10.773 -18.831  0.00  0.00    -0.025 C 
ENDBRANCH  28  32
ENDBRANCH  27  28
ENDBRANCH  26  27
ENDBRANCH  23  26
ENDBRANCH   2  24
TORSDOF 7
ENDMDL
