MODEL 1
REMARK VINA RESULT:      -9.5      0.000      0.000
REMARK  Name = 11742
REMARK  3 active torsions:
REMARK  status: ('A' for Active; 'I' for Inactive)
REMARK    1  A    between atoms: C_1  and  C_4
REMARK    2  A    between atoms: C_1  and  C_12
REMARK    3  A    between atoms: C_9  and  O_10
REMARK                            x       y       z     vdW  Elec       q    Type
REMARK                         _______ _______ _______ _____ _____    ______ ____
ROOT
ATOM      1  C   UNL     1      35.483 -18.476 -22.215  0.00  0.00    +0.038 C 
ATOM      2  C   UNL     1      37.016 -18.716 -21.940  0.00  0.00    +0.009 C 
ATOM      3  C   UNL     1      35.315 -18.863 -23.726  0.00  0.00    +0.009 C 
ENDROOT
BRANCH   1   4
ATOM      4  C   UNL     1      34.751 -19.487 -21.271  0.00  0.00    -0.019 C 
ATOM      5  C   UNL     1      35.526 -20.333 -20.542  0.00  0.00    -0.001 C 
ATOM      6  C   UNL     1      33.392 -19.445 -21.247  0.00  0.00    -0.001 C 
ATOM      7  C   UNL     1      34.873 -21.234 -19.701  0.00  0.00    +0.036 C 
ATOM      8  C   UNL     1      32.740 -20.347 -20.406  0.00  0.00    +0.036 C 
ATOM      9  C   UNL     1      33.480 -21.241 -19.632  0.00  0.00    +0.134 C 
BRANCH   9  10
ATOM     10  O   UNL     1      32.844 -22.119 -18.811  0.00  0.00    -0.506 OA
ATOM     11  H   UNL     1      32.612 -21.862 -17.940  0.00  0.00    +0.292 HD
ENDBRANCH   9  10
ENDBRANCH   1   4
BRANCH   1  12
ATOM     12  C   UNL     1      35.007 -17.075 -22.029  0.00  0.00    -0.019 C 
ATOM     13  C   UNL     1      34.863 -16.552 -20.744  0.00  0.00    -0.004 C 
ATOM     14  C   UNL     1      34.706 -16.288 -23.140  0.00  0.00    -0.004 C 
ATOM     15  C   UNL     1      34.416 -15.241 -20.570  0.00  0.00    -0.000 C 
ATOM     16  C   UNL     1      34.260 -14.977 -22.967  0.00  0.00    -0.000 C 
ATOM     17  C   UNL     1      34.115 -14.454 -21.682  0.00  0.00    -0.000 C 
ENDBRANCH   1  12
TORSDOF 3
ENDMDL
MODEL 2
REMARK VINA RESULT:      -9.0      2.315      5.186
REMARK  Name = 11742
REMARK  3 active torsions:
REMARK  status: ('A' for Active; 'I' for Inactive)
REMARK    1  A    between atoms: C_1  and  C_4
REMARK    2  A    between atoms: C_1  and  C_12
REMARK    3  A    between atoms: C_9  and  O_10
REMARK                            x       y       z     vdW  Elec       q    Type
REMARK                         _______ _______ _______ _____ _____    ______ ____
ROOT
ATOM      1  C   UNL     1      35.390 -18.574 -22.225  0.00  0.00    +0.038 C 
ATOM      2  C   UNL     1      35.219 -18.928 -23.750  0.00  0.00    +0.009 C 
ATOM      3  C   UNL     1      36.946 -18.566 -22.021  0.00  0.00    +0.009 C 
ENDROOT
BRANCH   1   4
ATOM      4  C   UNL     1      34.777 -17.141 -22.082  0.00  0.00    -0.019 C 
ATOM      5  C   UNL     1      34.265 -16.567 -23.203  0.00  0.00    -0.001 C 
ATOM      6  C   UNL     1      34.801 -16.572 -20.847  0.00  0.00    -0.001 C 
ATOM      7  C   UNL     1      33.719 -15.290 -23.076  0.00  0.00    +0.036 C 
ATOM      8  C   UNL     1      34.256 -15.295 -20.720  0.00  0.00    +0.036 C 
ATOM      9  C   UNL     1      33.714 -14.654 -21.834  0.00  0.00    +0.134 C 
BRANCH   9  10
ATOM     10  O   UNL     1      33.181 -13.408 -21.711  0.00  0.00    -0.506 OA
ATOM     11  H   UNL     1      32.990 -13.063 -20.861  0.00  0.00    +0.292 HD
ENDBRANCH   9  10
ENDBRANCH   1   4
BRANCH   1  12
ATOM     12  C   UNL     1      34.792 -19.547 -21.266  0.00  0.00    -0.019 C 
ATOM     13  C   UNL     1      35.618 -20.379 -20.510  0.00  0.00    -0.004 C 
ATOM     14  C   UNL     1      33.407 -19.626 -21.124  0.00  0.00    -0.004 C 
ATOM     15  C   UNL     1      35.059 -21.290 -19.613  0.00  0.00    -0.000 C 
ATOM     16  C   UNL     1      32.847 -20.537 -20.228  0.00  0.00    -0.000 C 
ATOM     17  C   UNL     1      33.673 -21.368 -19.473  0.00  0.00    -0.000 C 
ENDBRANCH   1  12
TORSDOF 3
ENDMDL
MODEL 3
REMARK VINA RESULT:      -8.7      1.191      2.528
REMARK  Name = 11742
REMARK  3 active torsions:
REMARK  status: ('A' for Active; 'I' for Inactive)
REMARK    1  A    between atoms: C_1  and  C_4
REMARK    2  A    between atoms: C_1  and  C_12
REMARK    3  A    between atoms: C_9  and  O_10
REMARK                            x       y       z     vdW  Elec       q    Type
REMARK                         _______ _______ _______ _____ _____    ______ ____
ROOT
ATOM      1  C   UNL     1      35.524 -18.349 -21.626  0.00  0.00    +0.038 C 
ATOM      2  C   UNL     1      35.392 -17.104 -20.670  0.00  0.00    +0.009 C 
ATOM      3  C   UNL     1      37.072 -18.596 -21.696  0.00  0.00    +0.009 C 
ENDROOT
BRANCH   1   4
ATOM      4  C   UNL     1      34.785 -19.505 -20.873  0.00  0.00    -0.019 C 
ATOM      5  C   UNL     1      35.553 -20.488 -20.332  0.00  0.00    -0.001 C 
ATOM      6  C   UNL     1      33.428 -19.444 -20.815  0.00  0.00    -0.001 C 
ATOM      7  C   UNL     1      34.894 -21.518 -19.661  0.00  0.00    +0.036 C 
ATOM      8  C   UNL     1      32.770 -20.474 -20.145  0.00  0.00    +0.036 C 
ATOM      9  C   UNL     1      33.502 -21.511 -19.568  0.00  0.00    +0.134 C 
BRANCH   9  10
ATOM     10  O   UNL     1      32.860 -22.516 -18.913  0.00  0.00    -0.506 OA
ATOM     11  H   UNL     1      32.248 -22.315 -18.232  0.00  0.00    +0.292 HD
ENDBRANCH   9  10
ENDBRANCH   1   4
BRANCH   1  12
ATOM     12  C   UNL     1      35.013 -18.154 -23.013  0.00  0.00    -0.019 C 
ATOM     13  C   UNL     1      34.737 -16.869 -23.481  0.00  0.00    -0.004 C 
ATOM     14  C   UNL     1      34.811 -19.256 -23.844  0.00  0.00    -0.004 C 
ATOM     15  C   UNL     1      34.257 -16.686 -24.778  0.00  0.00    -0.000 C 
ATOM     16  C   UNL     1      34.332 -19.074 -25.142  0.00  0.00    -0.000 C 
ATOM     17  C   UNL     1      34.055 -17.789 -25.608  0.00  0.00    -0.000 C 
ENDBRANCH   1  12
TORSDOF 3
ENDMDL
MODEL 4
REMARK VINA RESULT:      -8.3      3.079      5.800
REMARK  Name = 11742
REMARK  3 active torsions:
REMARK  status: ('A' for Active; 'I' for Inactive)
REMARK    1  A    between atoms: C_1  and  C_4
REMARK    2  A    between atoms: C_1  and  C_12
REMARK    3  A    between atoms: C_9  and  O_10
REMARK                            x       y       z     vdW  Elec       q    Type
REMARK                         _______ _______ _______ _____ _____    ______ ____
ROOT
ATOM      1  C   UNL     1      33.836 -16.144 -21.462  0.00  0.00    +0.038 C 
ATOM      2  C   UNL     1      34.746 -15.016 -20.844  0.00  0.00    +0.009 C 
ATOM      3  C   UNL     1      32.453 -15.929 -20.755  0.00  0.00    +0.009 C 
ENDROOT
BRANCH   1   4
ATOM      4  C   UNL     1      33.768 -15.803 -22.988  0.00  0.00    -0.019 C 
ATOM      5  C   UNL     1      33.162 -14.638 -23.340  0.00  0.00    -0.001 C 
ATOM      6  C   UNL     1      34.320 -16.696 -23.852  0.00  0.00    -0.001 C 
ATOM      7  C   UNL     1      33.101 -14.335 -24.700  0.00  0.00    +0.036 C 
ATOM      8  C   UNL     1      34.259 -16.392 -25.212  0.00  0.00    +0.036 C 
ATOM      9  C   UNL     1      33.650 -15.211 -25.636  0.00  0.00    +0.134 C 
BRANCH   9  10
ATOM     10  O   UNL     1      33.591 -14.914 -26.963  0.00  0.00    -0.506 OA
ATOM     11  H   UNL     1      34.303 -14.465 -27.374  0.00  0.00    +0.292 HD
ENDBRANCH   9  10
ENDBRANCH   1   4
BRANCH   1  12
ATOM     12  C   UNL     1      34.284 -17.544 -21.211  0.00  0.00    -0.019 C 
ATOM     13  C   UNL     1      35.646 -17.847 -21.187  0.00  0.00    -0.004 C 
ATOM     14  C   UNL     1      33.343 -18.550 -20.999  0.00  0.00    -0.004 C 
ATOM     15  C   UNL     1      36.065 -19.157 -20.953  0.00  0.00    -0.000 C 
ATOM     16  C   UNL     1      33.761 -19.860 -20.764  0.00  0.00    -0.000 C 
ATOM     17  C   UNL     1      35.122 -20.163 -20.741  0.00  0.00    -0.000 C 
ENDBRANCH   1  12
TORSDOF 3
ENDMDL
MODEL 5
REMARK VINA RESULT:      -7.8      1.699      3.366
REMARK  Name = 11742
REMARK  3 active torsions:
REMARK  status: ('A' for Active; 'I' for Inactive)
REMARK    1  A    between atoms: C_1  and  C_4
REMARK    2  A    between atoms: C_1  and  C_12
REMARK    3  A    between atoms: C_9  and  O_10
REMARK                            x       y       z     vdW  Elec       q    Type
REMARK                         _______ _______ _______ _____ _____    ______ ____
ROOT
ATOM      1  C   UNL     1      33.847 -16.155 -21.562  0.00  0.00    +0.038 C 
ATOM      2  C   UNL     1      32.467 -16.066 -20.809  0.00  0.00    +0.009 C 
ATOM      3  C   UNL     1      34.717 -15.049 -20.868  0.00  0.00    +0.009 C 
ENDROOT
BRANCH   1   4
ATOM      4  C   UNL     1      34.377 -17.594 -21.247  0.00  0.00    -0.019 C 
ATOM      5  C   UNL     1      33.450 -18.561 -21.011  0.00  0.00    -0.001 C 
ATOM      6  C   UNL     1      35.724 -17.774 -21.232  0.00  0.00    -0.001 C 
ATOM      7  C   UNL     1      33.922 -19.843 -20.731  0.00  0.00    +0.036 C 
ATOM      8  C   UNL     1      36.195 -19.056 -20.951  0.00  0.00    +0.036 C 
ATOM      9  C   UNL     1      35.295 -20.091 -20.700  0.00  0.00    +0.134 C 
BRANCH   9  10
ATOM     10  O   UNL     1      35.754 -21.342 -20.427  0.00  0.00    -0.506 OA
ATOM     11  H   UNL     1      36.257 -21.806 -21.067  0.00  0.00    +0.292 HD
ENDBRANCH   9  10
ENDBRANCH   1   4
BRANCH   1  12
ATOM     12  C   UNL     1      33.803 -15.872 -23.026  0.00  0.00    -0.019 C 
ATOM     13  C   UNL     1      34.353 -16.782 -23.929  0.00  0.00    -0.004 C 
ATOM     14  C   UNL     1      33.210 -14.699 -23.492  0.00  0.00    -0.004 C 
ATOM     15  C   UNL     1      34.312 -16.517 -25.298  0.00  0.00    -0.000 C 
ATOM     16  C   UNL     1      33.169 -14.434 -24.861  0.00  0.00    -0.000 C 
ATOM     17  C   UNL     1      33.719 -15.343 -25.764  0.00  0.00    -0.000 C 
ENDBRANCH   1  12
TORSDOF 3
ENDMDL
MODEL 6
REMARK VINA RESULT:      -7.4      9.878     12.232
REMARK  Name = 11742
REMARK  3 active torsions:
REMARK  status: ('A' for Active; 'I' for Inactive)
REMARK    1  A    between atoms: C_1  and  C_4
REMARK    2  A    between atoms: C_1  and  C_12
REMARK    3  A    between atoms: C_9  and  O_10
REMARK                            x       y       z     vdW  Elec       q    Type
REMARK                         _______ _______ _______ _____ _____    ______ ____
ROOT
ATOM      1  C   UNL     1      31.472  -6.301 -23.624  0.00  0.00    +0.038 C 
ATOM      2  C   UNL     1      30.228  -7.017 -24.272  0.00  0.00    +0.009 C 
ATOM      3  C   UNL     1      30.918  -4.888 -23.226  0.00  0.00    +0.009 C 
ENDROOT
BRANCH   1   4
ATOM      4  C   UNL     1      31.814  -7.167 -22.366  0.00  0.00    -0.019 C 
ATOM      5  C   UNL     1      31.714  -8.517 -22.493  0.00  0.00    -0.001 C 
ATOM      6  C   UNL     1      32.188  -6.507 -21.238  0.00  0.00    -0.001 C 
ATOM      7  C   UNL     1      32.019  -9.288 -21.372  0.00  0.00    +0.036 C 
ATOM      8  C   UNL     1      32.492  -7.279 -20.117  0.00  0.00    +0.036 C 
ATOM      9  C   UNL     1      32.408  -8.670 -20.183  0.00  0.00    +0.134 C 
BRANCH   9  10
ATOM     10  O   UNL     1      32.705  -9.423 -19.090  0.00  0.00    -0.506 OA
ATOM     11  H   UNL     1      33.578  -9.739 -18.963  0.00  0.00    +0.292 HD
ENDBRANCH   9  10
ENDBRANCH   1   4
BRANCH   1  12
ATOM     12  C   UNL     1      32.647  -6.112 -24.523  0.00  0.00    -0.019 C 
ATOM     13  C   UNL     1      32.565  -5.235 -25.604  0.00  0.00    -0.004 C 
ATOM     14  C   UNL     1      33.829  -6.813 -24.282  0.00  0.00    -0.004 C 
ATOM     15  C   UNL     1      33.665  -5.059 -26.446  0.00  0.00    -0.000 C 
ATOM     16  C   UNL     1      34.929  -6.637 -25.123  0.00  0.00    -0.000 C 
ATOM     17  C   UNL     1      34.846  -5.761 -26.204  0.00  0.00    -0.000 C 
ENDBRANCH   1  12
TORSDOF 3
ENDMDL
MODEL 7
REMARK VINA RESULT:      -7.3      9.110     11.913
REMARK  Name = 11742
REMARK  3 active torsions:
REMARK  status: ('A' for Active; 'I' for Inactive)
REMARK    1  A    between atoms: C_1  and  C_4
REMARK    2  A    between atoms: C_1  and  C_12
REMARK    3  A    between atoms: C_9  and  O_10
REMARK                            x       y       z     vdW  Elec       q    Type
REMARK                         _______ _______ _______ _____ _____    ______ ____
ROOT
ATOM      1  C   UNL     1      32.110  -8.942 -22.416  0.00  0.00    +0.038 C 
ATOM      2  C   UNL     1      32.539  -8.828 -20.904  0.00  0.00    +0.009 C 
ATOM      3  C   UNL     1      30.866  -9.896 -22.374  0.00  0.00    +0.009 C 
ENDROOT
BRANCH   1   4
ATOM      4  C   UNL     1      31.712  -7.484 -22.823  0.00  0.00    -0.019 C 
ATOM      5  C   UNL     1      31.228  -7.299 -24.080  0.00  0.00    -0.001 C 
ATOM      6  C   UNL     1      31.879  -6.508 -21.891  0.00  0.00    -0.001 C 
ATOM      7  C   UNL     1      30.873  -5.999 -24.443  0.00  0.00    +0.036 C 
ATOM      8  C   UNL     1      31.525  -5.209 -22.255  0.00  0.00    +0.036 C 
ATOM      9  C   UNL     1      31.022  -4.954 -23.531  0.00  0.00    +0.134 C 
BRANCH   9  10
ATOM     10  O   UNL     1      30.675  -3.688 -23.885  0.00  0.00    -0.506 OA
ATOM     11  H   UNL     1      31.263  -3.166 -24.395  0.00  0.00    +0.292 HD
ENDBRANCH   9  10
ENDBRANCH   1   4
BRANCH   1  12
ATOM     12  C   UNL     1      33.128  -9.531 -23.332  0.00  0.00    -0.019 C 
ATOM     13  C   UNL     1      34.218  -8.767 -23.748  0.00  0.00    -0.004 C 
ATOM     14  C   UNL     1      32.992 -10.847 -23.772  0.00  0.00    -0.004 C 
ATOM     15  C   UNL     1      35.171  -9.317 -24.607  0.00  0.00    -0.000 C 
ATOM     16  C   UNL     1      33.944 -11.399 -24.630  0.00  0.00    -0.000 C 
ATOM     17  C   UNL     1      35.033 -10.634 -25.047  0.00  0.00    -0.000 C 
ENDBRANCH   1  12
TORSDOF 3
ENDMDL
MODEL 8
REMARK VINA RESULT:      -7.2      6.471      9.154
REMARK  Name = 11742
REMARK  3 active torsions:
REMARK  status: ('A' for Active; 'I' for Inactive)
REMARK    1  A    between atoms: C_1  and  C_4
REMARK    2  A    between atoms: C_1  and  C_12
REMARK    3  A    between atoms: C_9  and  O_10
REMARK                            x       y       z     vdW  Elec       q    Type
REMARK                         _______ _______ _______ _____ _____    ______ ____
ROOT
ATOM      1  C   UNL     1      31.606 -23.753 -14.609  0.00  0.00    +0.038 C 
ATOM      2  C   UNL     1      31.941 -25.208 -14.105  0.00  0.00    +0.009 C 
ATOM      3  C   UNL     1      31.642 -22.892 -13.298  0.00  0.00    +0.009 C 
ENDROOT
BRANCH   1   4
ATOM      4  C   UNL     1      32.782 -23.390 -15.576  0.00  0.00    -0.019 C 
ATOM      5  C   UNL     1      32.476 -23.211 -16.888  0.00  0.00    -0.001 C 
ATOM      6  C   UNL     1      34.024 -23.281 -15.034  0.00  0.00    -0.001 C 
ATOM      7  C   UNL     1      33.524 -22.887 -17.750  0.00  0.00    +0.036 C 
ATOM      8  C   UNL     1      35.071 -22.958 -15.896  0.00  0.00    +0.036 C 
ATOM      9  C   UNL     1      34.822 -22.761 -17.254  0.00  0.00    +0.134 C 
BRANCH   9  10
ATOM     10  O   UNL     1      35.844 -22.444 -18.095  0.00  0.00    -0.506 OA
ATOM     11  H   UNL     1      36.445 -23.108 -18.372  0.00  0.00    +0.292 HD
ENDBRANCH   9  10
ENDBRANCH   1   4
BRANCH   1  12
ATOM     12  C   UNL     1      30.270 -23.585 -15.249  0.00  0.00    -0.019 C 
ATOM     13  C   UNL     1      29.721 -24.624 -16.001  0.00  0.00    -0.004 C 
ATOM     14  C   UNL     1      29.568 -22.390 -15.096  0.00  0.00    -0.004 C 
ATOM     15  C   UNL     1      28.471 -24.467 -16.601  0.00  0.00    -0.000 C 
ATOM     16  C   UNL     1      28.318 -22.232 -15.696  0.00  0.00    -0.000 C 
ATOM     17  C   UNL     1      27.770 -23.270 -16.448  0.00  0.00    -0.000 C 
ENDBRANCH   1  12
TORSDOF 3
ENDMDL
MODEL 9
REMARK VINA RESULT:      -7.2      8.541     10.321
REMARK  Name = 11742
REMARK  3 active torsions:
REMARK  status: ('A' for Active; 'I' for Inactive)
REMARK    1  A    between atoms: C_1  and  C_4
REMARK    2  A    between atoms: C_1  and  C_12
REMARK    3  A    between atoms: C_9  and  O_10
REMARK                            x       y       z     vdW  Elec       q    Type
REMARK                         _______ _______ _______ _____ _____    ______ ____
ROOT
ATOM      1  C   UNL     1      32.145  -8.404 -22.489  0.00  0.00    +0.038 C 
ATOM      2  C   UNL     1      32.667  -6.971 -22.093  0.00  0.00    +0.009 C 
ATOM      3  C   UNL     1      30.813  -8.110 -23.263  0.00  0.00    +0.009 C 
ENDROOT
BRANCH   1   4
ATOM      4  C   UNL     1      33.253  -8.979 -23.433  0.00  0.00    -0.019 C 
ATOM      5  C   UNL     1      33.168 -10.296 -23.763  0.00  0.00    -0.001 C 
ATOM      6  C   UNL     1      34.219  -8.122 -23.856  0.00  0.00    -0.001 C 
ATOM      7  C   UNL     1      34.155 -10.808 -24.605  0.00  0.00    +0.036 C 
ATOM      8  C   UNL     1      35.206  -8.636 -24.697  0.00  0.00    +0.036 C 
ATOM      9  C   UNL     1      35.175  -9.978 -25.072  0.00  0.00    +0.134 C 
BRANCH   9  10
ATOM     10  O   UNL     1      36.136 -10.479 -25.893  0.00  0.00    -0.506 OA
ATOM     11  H   UNL     1      36.909 -10.864 -25.530  0.00  0.00    +0.292 HD
ENDBRANCH   9  10
ENDBRANCH   1   4
BRANCH   1  12
ATOM     12  C   UNL     1      31.838  -9.316 -21.349  0.00  0.00    -0.019 C 
ATOM     13  C   UNL     1      32.303  -9.014 -20.069  0.00  0.00    -0.004 C 
ATOM     14  C   UNL     1      31.087 -10.471 -21.563  0.00  0.00    -0.004 C 
ATOM     15  C   UNL     1      32.017  -9.867 -19.003  0.00  0.00    -0.000 C 
ATOM     16  C   UNL     1      30.800 -11.325 -20.498  0.00  0.00    -0.000 C 
ATOM     17  C   UNL     1      31.265 -11.023 -19.218  0.00  0.00    -0.000 C 
ENDBRANCH   1  12
TORSDOF 3
ENDMDL
