MODEL 1
REMARK VINA RESULT:      -6.9      0.000      0.000
REMARK  Name = 67427
REMARK  8 active torsions:
REMARK  status: ('A' for Active; 'I' for Inactive)
REMARK    1  A    between atoms: CB_1  and  CA_2
REMARK    2  A    between atoms: CB_1  and  CG_12
REMARK    3  A    between atoms: CA_2  and  N_4
REMARK    4  A    between atoms: CA_2  and  C_9
REMARK    5  A    between atoms: C_9  and  O_10
REMARK    6  A    between atoms: CG_12  and  CD_13
REMARK    7  A    between atoms: CD_13  and  NE_14
REMARK    8  A    between atoms: NE_14  and  CZ_17
REMARK                            x       y       z     vdW  Elec       q    Type
REMARK                         _______ _______ _______ _____ _____    ______ ____
ROOT
ATOM      1  CB  ARG A   1      37.642 -26.022 -14.969  0.00  0.00    +0.033 C 
ENDROOT
BRANCH   1   2
ATOM      2  CA  ARG A   1      38.568 -24.812 -14.818  0.00  0.00    +0.171 C 
BRANCH   2   4
ATOM      3  O   UNK A   0      36.416 -22.868 -14.699  0.00  0.00    -0.275 OA
ATOM      4  N   ARG A   1      38.276 -23.771 -15.770  0.00  0.00    -0.297 N 
ATOM      5  C   UNK A   0      37.220 -22.884 -15.628  0.00  0.00    +0.223 C 
ATOM      6  C   UNK A   0      37.157 -21.883 -16.750  0.00  0.00    +0.095 C 
ATOM      7  H   ARG A   1      38.855 -23.686 -16.562  0.00  0.00    +0.150 HD
ENDBRANCH   2   4
BRANCH   2   9
ATOM      8  OXT ARG A   1      40.908 -24.920 -14.143  0.00  0.00    -0.248 OA
ATOM      9  C   ARG A   1      40.033 -25.185 -14.957  0.00  0.00    +0.332 C 
BRANCH   9  10
ATOM     10  O   ARG A   1      40.270 -25.896 -16.091  0.00  0.00    -0.479 OA
ATOM     11  H   ARG A   1      41.082 -26.354 -16.194  0.00  0.00    +0.295 HD
ENDBRANCH   9  10
ENDBRANCH   2   9
ENDBRANCH   1   2
BRANCH   1  12
ATOM     12  CG  ARG A   1      37.227 -26.666 -13.641  0.00  0.00    +0.029 C 
BRANCH  12  13
ATOM     13  CD  ARG A   1      37.670 -25.816 -12.454  0.00  0.00    +0.129 C 
BRANCH  13  14
ATOM     14  NE  ARG A   1      36.485 -25.349 -11.733  0.00  0.00    -0.240 NA
BRANCH  14  17
ATOM     15  NH1 ARG A   1      34.944 -23.672 -12.164  0.00  0.00    -0.370 N 
ATOM     16  NH2 ARG A   1      37.054 -23.019 -11.605  0.00  0.00    -0.370 N 
ATOM     17  CZ  ARG A   1      36.210 -24.085 -11.820  0.00  0.00    +0.189 C 
ATOM     18 HH11 ARG A   1      34.242 -24.337 -12.346  0.00  0.00    +0.159 HD
ATOM     19 HH12 ARG A   1      34.740 -22.711 -12.229  0.00  0.00    +0.159 HD
ATOM     20 HH21 ARG A   1      37.992 -23.178 -11.350  0.00  0.00    +0.159 HD
ATOM     21 HH22 ARG A   1      36.721 -22.098 -11.703  0.00  0.00    +0.159 HD
ENDBRANCH  14  17
ENDBRANCH  13  14
ENDBRANCH  12  13
ENDBRANCH   1  12
TORSDOF 8
ENDMDL
MODEL 2
REMARK VINA RESULT:      -6.3      9.034     11.986
REMARK  Name = 67427
REMARK  8 active torsions:
REMARK  status: ('A' for Active; 'I' for Inactive)
REMARK    1  A    between atoms: CB_1  and  CA_2
REMARK    2  A    between atoms: CB_1  and  CG_12
REMARK    3  A    between atoms: CA_2  and  N_4
REMARK    4  A    between atoms: CA_2  and  C_9
REMARK    5  A    between atoms: C_9  and  O_10
REMARK    6  A    between atoms: CG_12  and  CD_13
REMARK    7  A    between atoms: CD_13  and  NE_14
REMARK    8  A    between atoms: NE_14  and  CZ_17
REMARK                            x       y       z     vdW  Elec       q    Type
REMARK                         _______ _______ _______ _____ _____    ______ ____
ROOT
ATOM      1  CB  ARG A   1      34.890 -17.078 -20.994  0.00  0.00    +0.033 C 
ENDROOT
BRANCH   1   2
ATOM      2  CA  ARG A   1      34.458 -18.423 -21.583  0.00  0.00    +0.171 C 
BRANCH   2   4
ATOM      3  O   UNK A   0      32.543 -20.451 -20.780  0.00  0.00    -0.275 OA
ATOM      4  N   ARG A   1      34.673 -19.518 -20.671  0.00  0.00    -0.297 N 
ATOM      5  C   UNK A   0      33.692 -20.443 -20.348  0.00  0.00    +0.223 C 
ATOM      6  C   UNK A   0      34.189 -21.496 -19.393  0.00  0.00    +0.095 C 
ATOM      7  H   ARG A   1      35.561 -19.615 -20.258  0.00  0.00    +0.150 HD
ENDBRANCH   2   4
BRANCH   2   9
ATOM      8  OXT ARG A   1      34.775 -19.527 -23.733  0.00  0.00    -0.248 OA
ATOM      9  C   ARG A   1      35.173 -18.741 -22.884  0.00  0.00    +0.332 C 
BRANCH   9  10
ATOM     10  O   ARG A   1      36.312 -18.014 -23.028  0.00  0.00    -0.479 OA
ATOM     11  H   ARG A   1      36.962 -18.281 -23.648  0.00  0.00    +0.295 HD
ENDBRANCH   9  10
ENDBRANCH   2   9
ENDBRANCH   1   2
BRANCH   1  12
ATOM     12  CG  ARG A   1      33.845 -15.964 -21.138  0.00  0.00    +0.029 C 
BRANCH  12  13
ATOM     13  CD  ARG A   1      34.400 -14.788 -21.935  0.00  0.00    +0.129 C 
BRANCH  13  14
ATOM     14  NE  ARG A   1      34.956 -15.286 -23.195  0.00  0.00    -0.240 NA
BRANCH  14  17
ATOM     15  NH1 ARG A   1      34.192 -16.489 -25.023  0.00  0.00    -0.370 N 
ATOM     16  NH2 ARG A   1      33.142 -14.517 -24.570  0.00  0.00    -0.370 N 
ATOM     17  CZ  ARG A   1      34.133 -15.395 -24.192  0.00  0.00    +0.189 C 
ATOM     18 HH11 ARG A   1      34.860 -17.194 -24.862  0.00  0.00    +0.159 HD
ATOM     19 HH12 ARG A   1      33.565 -16.567 -25.778  0.00  0.00    +0.159 HD
ATOM     20 HH21 ARG A   1      32.994 -13.691 -24.056  0.00  0.00    +0.159 HD
ATOM     21 HH22 ARG A   1      32.580 -14.717 -25.353  0.00  0.00    +0.159 HD
ENDBRANCH  14  17
ENDBRANCH  13  14
ENDBRANCH  12  13
ENDBRANCH   1  12
TORSDOF 8
ENDMDL
MODEL 3
REMARK VINA RESULT:      -6.3      9.736     12.600
REMARK  Name = 67427
REMARK  8 active torsions:
REMARK  status: ('A' for Active; 'I' for Inactive)
REMARK    1  A    between atoms: CB_1  and  CA_2
REMARK    2  A    between atoms: CB_1  and  CG_12
REMARK    3  A    between atoms: CA_2  and  N_4
REMARK    4  A    between atoms: CA_2  and  C_9
REMARK    5  A    between atoms: C_9  and  O_10
REMARK    6  A    between atoms: CG_12  and  CD_13
REMARK    7  A    between atoms: CD_13  and  NE_14
REMARK    8  A    between atoms: NE_14  and  CZ_17
REMARK                            x       y       z     vdW  Elec       q    Type
REMARK                         _______ _______ _______ _____ _____    ______ ____
ROOT
ATOM      1  CB  ARG A   1      34.637 -16.165 -20.989  0.00  0.00    +0.033 C 
ENDROOT
BRANCH   1   2
ATOM      2  CA  ARG A   1      34.615 -17.519 -21.703  0.00  0.00    +0.171 C 
BRANCH   2   4
ATOM      3  O   UNK A   0      33.800 -20.219 -21.015  0.00  0.00    -0.275 OA
ATOM      4  N   ARG A   1      35.390 -18.519 -21.013  0.00  0.00    -0.297 N 
ATOM      5  C   UNK A   0      34.914 -19.789 -20.728  0.00  0.00    +0.223 C 
ATOM      6  C   UNK A   0      35.937 -20.640 -20.023  0.00  0.00    +0.095 C 
ATOM      7  H   ARG A   1      36.305 -18.287 -20.730  0.00  0.00    +0.150 HD
ENDBRANCH   2   4
BRANCH   2   9
ATOM      8  OXT ARG A   1      34.995 -18.302 -23.980  0.00  0.00    -0.248 OA
ATOM      9  C   ARG A   1      35.120 -17.429 -23.131  0.00  0.00    +0.332 C 
BRANCH   9  10
ATOM     10  O   ARG A   1      35.706 -16.229 -23.387  0.00  0.00    -0.479 OA
ATOM     11  H   ARG A   1      36.605 -16.195 -23.650  0.00  0.00    +0.295 HD
ENDBRANCH   9  10
ENDBRANCH   2   9
ENDBRANCH   1   2
BRANCH   1  12
ATOM     12  CG  ARG A   1      33.248 -15.571 -20.722  0.00  0.00    +0.029 C 
BRANCH  12  13
ATOM     13  CD  ARG A   1      32.777 -14.723 -21.899  0.00  0.00    +0.129 C 
BRANCH  13  14
ATOM     14  NE  ARG A   1      33.904 -13.934 -22.400  0.00  0.00    -0.240 NA
BRANCH  14  17
ATOM     15  NH1 ARG A   1      33.432 -14.396 -24.623  0.00  0.00    -0.370 N 
ATOM     16  NH2 ARG A   1      34.115 -12.278 -24.127  0.00  0.00    -0.370 N 
ATOM     17  CZ  ARG A   1      33.831 -13.530 -23.631  0.00  0.00    +0.189 C 
ATOM     18 HH11 ARG A   1      33.200 -15.326 -24.400  0.00  0.00    +0.159 HD
ATOM     19 HH12 ARG A   1      33.379 -14.084 -25.555  0.00  0.00    +0.159 HD
ATOM     20 HH21 ARG A   1      34.412 -11.563 -23.520  0.00  0.00    +0.159 HD
ATOM     21 HH22 ARG A   1      34.019 -12.097 -25.090  0.00  0.00    +0.159 HD
ENDBRANCH  14  17
ENDBRANCH  13  14
ENDBRANCH  12  13
ENDBRANCH   1  12
TORSDOF 8
ENDMDL
MODEL 4
REMARK VINA RESULT:      -6.3      6.182      7.690
REMARK  Name = 67427
REMARK  8 active torsions:
REMARK  status: ('A' for Active; 'I' for Inactive)
REMARK    1  A    between atoms: CB_1  and  CA_2
REMARK    2  A    between atoms: CB_1  and  CG_12
REMARK    3  A    between atoms: CA_2  and  N_4
REMARK    4  A    between atoms: CA_2  and  C_9
REMARK    5  A    between atoms: C_9  and  O_10
REMARK    6  A    between atoms: CG_12  and  CD_13
REMARK    7  A    between atoms: CD_13  and  NE_14
REMARK    8  A    between atoms: NE_14  and  CZ_17
REMARK                            x       y       z     vdW  Elec       q    Type
REMARK                         _______ _______ _______ _____ _____    ______ ____
ROOT
ATOM      1  CB  ARG A   1      31.632 -23.035 -15.558  0.00  0.00    +0.033 C 
ENDROOT
BRANCH   1   2
ATOM      2  CA  ARG A   1      30.421 -23.970 -15.621  0.00  0.00    +0.171 C 
BRANCH   2   4
ATOM      3  O   UNK A   0      28.421 -23.266 -17.604  0.00  0.00    -0.275 OA
ATOM      4  N   ARG A   1      29.177 -23.276 -15.402  0.00  0.00    -0.297 N 
ATOM      5  C   UNK A   0      28.280 -22.984 -16.417  0.00  0.00    +0.223 C 
ATOM      6  C   UNK A   0      27.051 -22.277 -15.910  0.00  0.00    +0.095 C 
ATOM      7  H   ARG A   1      28.953 -22.996 -14.485  0.00  0.00    +0.150 HD
ENDBRANCH   2   4
BRANCH   2   9
ATOM      8  OXT ARG A   1      31.535 -25.452 -14.039  0.00  0.00    -0.248 OA
ATOM      9  C   ARG A   1      30.515 -25.105 -14.619  0.00  0.00    +0.332 C 
BRANCH   9  10
ATOM     10  O   ARG A   1      29.307 -25.688 -14.397  0.00  0.00    -0.479 OA
ATOM     11  H   ARG A   1      28.570 -25.452 -14.926  0.00  0.00    +0.295 HD
ENDBRANCH   9  10
ENDBRANCH   2   9
ENDBRANCH   1   2
BRANCH   1  12
ATOM     12  CG  ARG A   1      32.765 -23.407 -16.523  0.00  0.00    +0.029 C 
BRANCH  12  13
ATOM     13  CD  ARG A   1      34.130 -23.115 -15.909  0.00  0.00    +0.129 C 
BRANCH  13  14
ATOM     14  NE  ARG A   1      34.970 -24.308 -16.024  0.00  0.00    -0.240 NA
BRANCH  14  17
ATOM     15  NH1 ARG A   1      35.950 -26.119 -14.960  0.00  0.00    -0.370 N 
ATOM     16  NH2 ARG A   1      34.570 -24.806 -13.709  0.00  0.00    -0.370 N 
ATOM     17  CZ  ARG A   1      35.133 -25.013 -14.948  0.00  0.00    +0.189 C 
ATOM     18 HH11 ARG A   1      36.415 -26.378 -15.788  0.00  0.00    +0.159 HD
ATOM     19 HH12 ARG A   1      36.070 -26.651 -14.141  0.00  0.00    +0.159 HD
ATOM     20 HH21 ARG A   1      33.963 -24.045 -13.565  0.00  0.00    +0.159 HD
ATOM     21 HH22 ARG A   1      34.775 -25.419 -12.966  0.00  0.00    +0.159 HD
ENDBRANCH  14  17
ENDBRANCH  13  14
ENDBRANCH  12  13
ENDBRANCH   1  12
TORSDOF 8
ENDMDL
MODEL 5
REMARK VINA RESULT:      -6.3      6.835      8.693
REMARK  Name = 67427
REMARK  8 active torsions:
REMARK  status: ('A' for Active; 'I' for Inactive)
REMARK    1  A    between atoms: CB_1  and  CA_2
REMARK    2  A    between atoms: CB_1  and  CG_12
REMARK    3  A    between atoms: CA_2  and  N_4
REMARK    4  A    between atoms: CA_2  and  C_9
REMARK    5  A    between atoms: C_9  and  O_10
REMARK    6  A    between atoms: CG_12  and  CD_13
REMARK    7  A    between atoms: CD_13  and  NE_14
REMARK    8  A    between atoms: NE_14  and  CZ_17
REMARK                            x       y       z     vdW  Elec       q    Type
REMARK                         _______ _______ _______ _____ _____    ______ ____
ROOT
ATOM      1  CB  ARG A   1      31.741 -23.280 -15.601  0.00  0.00    +0.033 C 
ENDROOT
BRANCH   1   2
ATOM      2  CA  ARG A   1      30.429 -24.059 -15.472  0.00  0.00    +0.171 C 
BRANCH   2   4
ATOM      3  O   UNK A   0      28.064 -24.104 -17.155  0.00  0.00    -0.275 OA
ATOM      4  N   ARG A   1      29.280 -23.193 -15.391  0.00  0.00    -0.297 N 
ATOM      5  C   UNK A   0      28.191 -23.292 -16.243  0.00  0.00    +0.223 C 
ATOM      6  C   UNK A   0      27.119 -22.284 -15.922  0.00  0.00    +0.095 C 
ATOM      7  H   ARG A   1      29.268 -22.497 -14.694  0.00  0.00    +0.150 HD
ENDBRANCH   2   4
BRANCH   2   9
ATOM      8  OXT ARG A   1      30.861 -24.695 -13.159  0.00  0.00    -0.248 OA
ATOM      9  C   ARG A   1      30.418 -24.978 -14.264  0.00  0.00    +0.332 C 
BRANCH   9  10
ATOM     10  O   ARG A   1      29.815 -26.165 -14.535  0.00  0.00    -0.479 OA
ATOM     11  H   ARG A   1      30.280 -26.968 -14.397  0.00  0.00    +0.295 HD
ENDBRANCH   9  10
ENDBRANCH   2   9
ENDBRANCH   1   2
BRANCH   1  12
ATOM     12  CG  ARG A   1      32.120 -22.922 -17.043  0.00  0.00    +0.029 C 
BRANCH  12  13
ATOM     13  CD  ARG A   1      33.543 -23.370 -17.366  0.00  0.00    +0.129 C 
BRANCH  13  14
ATOM     14  NE  ARG A   1      33.731 -23.348 -18.818  0.00  0.00    -0.240 NA
BRANCH  14  17
ATOM     15  NH1 ARG A   1      35.005 -21.474 -19.311  0.00  0.00    -0.370 N 
ATOM     16  NH2 ARG A   1      32.856 -21.495 -20.070  0.00  0.00    -0.370 N 
ATOM     17  CZ  ARG A   1      33.826 -22.181 -19.375  0.00  0.00    +0.189 C 
ATOM     18 HH11 ARG A   1      35.781 -21.855 -18.840  0.00  0.00    +0.159 HD
ATOM     19 HH12 ARG A   1      35.072 -20.589 -19.735  0.00  0.00    +0.159 HD
ATOM     20 HH21 ARG A   1      31.963 -21.891 -20.190  0.00  0.00    +0.159 HD
ATOM     21 HH22 ARG A   1      33.055 -20.608 -20.449  0.00  0.00    +0.159 HD
ENDBRANCH  14  17
ENDBRANCH  13  14
ENDBRANCH  12  13
ENDBRANCH   1  12
TORSDOF 8
ENDMDL
MODEL 6
REMARK VINA RESULT:      -6.2      9.612     12.636
REMARK  Name = 67427
REMARK  8 active torsions:
REMARK  status: ('A' for Active; 'I' for Inactive)
REMARK    1  A    between atoms: CB_1  and  CA_2
REMARK    2  A    between atoms: CB_1  and  CG_12
REMARK    3  A    between atoms: CA_2  and  N_4
REMARK    4  A    between atoms: CA_2  and  C_9
REMARK    5  A    between atoms: C_9  and  O_10
REMARK    6  A    between atoms: CG_12  and  CD_13
REMARK    7  A    between atoms: CD_13  and  NE_14
REMARK    8  A    between atoms: NE_14  and  CZ_17
REMARK                            x       y       z     vdW  Elec       q    Type
REMARK                         _______ _______ _______ _____ _____    ______ ____
ROOT
ATOM      1  CB  ARG A   1      35.538 -17.830 -23.313  0.00  0.00    +0.033 C 
ENDROOT
BRANCH   1   2
ATOM      2  CA  ARG A   1      35.288 -17.845 -21.803  0.00  0.00    +0.171 C 
BRANCH   2   4
ATOM      3  O   UNK A   0      35.416 -20.171 -20.071  0.00  0.00    -0.275 OA
ATOM      4  N   ARG A   1      34.206 -18.720 -21.431  0.00  0.00    -0.297 N 
ATOM      5  C   UNK A   0      34.364 -19.813 -20.592  0.00  0.00    +0.223 C 
ATOM      6  C   UNK A   0      33.069 -20.541 -20.349  0.00  0.00    +0.095 C 
ATOM      7  H   ARG A   1      33.309 -18.532 -21.791  0.00  0.00    +0.150 HD
ENDBRANCH   2   4
BRANCH   2   9
ATOM      8  OXT ARG A   1      34.942 -16.171 -20.065  0.00  0.00    -0.248 OA
ATOM      9  C   ARG A   1      34.992 -16.462 -21.252  0.00  0.00    +0.332 C 
BRANCH   9  10
ATOM     10  O   ARG A   1      34.820 -15.547 -22.243  0.00  0.00    -0.479 OA
ATOM     11  H   ARG A   1      35.550 -15.045 -22.547  0.00  0.00    +0.295 HD
ENDBRANCH   9  10
ENDBRANCH   2   9
ENDBRANCH   1   2
BRANCH   1  12
ATOM     12  CG  ARG A   1      34.419 -18.474 -24.142  0.00  0.00    +0.029 C 
BRANCH  12  13
ATOM     13  CD  ARG A   1      34.146 -17.676 -25.413  0.00  0.00    +0.129 C 
BRANCH  13  14
ATOM     14  NE  ARG A   1      34.458 -16.267 -25.168  0.00  0.00    -0.240 NA
BRANCH  14  17
ATOM     15  NH1 ARG A   1      33.191 -14.511 -24.342  0.00  0.00    -0.370 N 
ATOM     16  NH2 ARG A   1      32.661 -15.282 -26.420  0.00  0.00    -0.370 N 
ATOM     17  CZ  ARG A   1      33.491 -15.419 -25.331  0.00  0.00    +0.189 C 
ATOM     18 HH11 ARG A   1      33.711 -14.503 -23.507  0.00  0.00    +0.159 HD
ATOM     19 HH12 ARG A   1      32.456 -13.869 -24.471  0.00  0.00    +0.159 HD
ATOM     20 HH21 ARG A   1      32.771 -15.872 -27.200  0.00  0.00    +0.159 HD
ATOM     21 HH22 ARG A   1      31.960 -14.592 -26.422  0.00  0.00    +0.159 HD
ENDBRANCH  14  17
ENDBRANCH  13  14
ENDBRANCH  12  13
ENDBRANCH   1  12
TORSDOF 8
ENDMDL
MODEL 7
REMARK VINA RESULT:      -6.2      2.977      4.642
REMARK  Name = 67427
REMARK  8 active torsions:
REMARK  status: ('A' for Active; 'I' for Inactive)
REMARK    1  A    between atoms: CB_1  and  CA_2
REMARK    2  A    between atoms: CB_1  and  CG_12
REMARK    3  A    between atoms: CA_2  and  N_4
REMARK    4  A    between atoms: CA_2  and  C_9
REMARK    5  A    between atoms: C_9  and  O_10
REMARK    6  A    between atoms: CG_12  and  CD_13
REMARK    7  A    between atoms: CD_13  and  NE_14
REMARK    8  A    between atoms: NE_14  and  CZ_17
REMARK                            x       y       z     vdW  Elec       q    Type
REMARK                         _______ _______ _______ _____ _____    ______ ____
ROOT
ATOM      1  CB  ARG A   1      35.449 -24.327 -12.515  0.00  0.00    +0.033 C 
ENDROOT
BRANCH   1   2
ATOM      2  CA  ARG A   1      34.656 -24.228 -13.821  0.00  0.00    +0.171 C 
BRANCH   2   4
ATOM      3  O   UNK A   0      32.109 -23.071 -14.597  0.00  0.00    -0.275 OA
ATOM      4  N   ARG A   1      33.352 -24.834 -13.722  0.00  0.00    -0.297 N 
ATOM      5  C   UNK A   0      32.186 -24.201 -14.121  0.00  0.00    +0.223 C 
ATOM      6  C   UNK A   0      30.969 -25.068 -13.932  0.00  0.00    +0.095 C 
ATOM      7  H   ARG A   1      33.288 -25.745 -13.353  0.00  0.00    +0.150 HD
ENDBRANCH   2   4
BRANCH   2   9
ATOM      8  OXT ARG A   1      35.886 -24.247 -15.925  0.00  0.00    -0.248 OA
ATOM      9  C   ARG A   1      35.386 -24.860 -14.991  0.00  0.00    +0.332 C 
BRANCH   9  10
ATOM     10  O   ARG A   1      35.463 -26.212 -14.871  0.00  0.00    -0.479 OA
ATOM     11  H   ARG A   1      35.273 -26.620 -14.049  0.00  0.00    +0.295 HD
ENDBRANCH   9  10
ENDBRANCH   2   9
ENDBRANCH   1   2
BRANCH   1  12
ATOM     12  CG  ARG A   1      36.787 -23.578 -12.534  0.00  0.00    +0.029 C 
BRANCH  12  13
ATOM     13  CD  ARG A   1      37.927 -24.474 -12.060  0.00  0.00    +0.129 C 
BRANCH  13  14
ATOM     14  NE  ARG A   1      38.991 -24.463 -13.066  0.00  0.00    -0.240 NA
BRANCH  14  17
ATOM     15  NH1 ARG A   1      38.984 -24.706 -15.371  0.00  0.00    -0.370 N 
ATOM     16  NH2 ARG A   1      38.468 -26.550 -14.134  0.00  0.00    -0.370 N 
ATOM     17  CZ  ARG A   1      38.818 -25.218 -14.105  0.00  0.00    +0.189 C 
ATOM     18 HH11 ARG A   1      39.236 -23.762 -15.490  0.00  0.00    +0.159 HD
ATOM     19 HH12 ARG A   1      38.852 -25.284 -16.157  0.00  0.00    +0.159 HD
ATOM     20 HH21 ARG A   1      38.320 -27.038 -13.292  0.00  0.00    +0.159 HD
ATOM     21 HH22 ARG A   1      38.369 -27.014 -14.996  0.00  0.00    +0.159 HD
ENDBRANCH  14  17
ENDBRANCH  13  14
ENDBRANCH  12  13
ENDBRANCH   1  12
TORSDOF 8
ENDMDL
MODEL 8
REMARK VINA RESULT:      -6.2      2.477      4.787
REMARK  Name = 67427
REMARK  8 active torsions:
REMARK  status: ('A' for Active; 'I' for Inactive)
REMARK    1  A    between atoms: CB_1  and  CA_2
REMARK    2  A    between atoms: CB_1  and  CG_12
REMARK    3  A    between atoms: CA_2  and  N_4
REMARK    4  A    between atoms: CA_2  and  C_9
REMARK    5  A    between atoms: C_9  and  O_10
REMARK    6  A    between atoms: CG_12  and  CD_13
REMARK    7  A    between atoms: CD_13  and  NE_14
REMARK    8  A    between atoms: NE_14  and  CZ_17
REMARK                            x       y       z     vdW  Elec       q    Type
REMARK                         _______ _______ _______ _____ _____    ______ ____
ROOT
ATOM      1  CB  ARG A   1      35.486 -24.375 -13.406  0.00  0.00    +0.033 C 
ENDROOT
BRANCH   1   2
ATOM      2  CA  ARG A   1      36.888 -23.847 -13.091  0.00  0.00    +0.171 C 
BRANCH   2   4
ATOM      3  O   UNK A   0      38.784 -23.811 -15.289  0.00  0.00    -0.275 OA
ATOM      4  N   ARG A   1      37.918 -24.813 -13.375  0.00  0.00    -0.297 N 
ATOM      5  C   UNK A   0      38.782 -24.711 -14.454  0.00  0.00    +0.223 C 
ATOM      6  C   UNK A   0      39.776 -25.840 -14.501  0.00  0.00    +0.095 C 
ATOM      7  H   ARG A   1      38.013 -25.585 -12.771  0.00  0.00    +0.150 HD
ENDBRANCH   2   4
BRANCH   2   9
ATOM      8  OXT ARG A   1      36.730 -24.089 -10.671  0.00  0.00    -0.248 OA
ATOM      9  C   ARG A   1      37.030 -23.411 -11.645  0.00  0.00    +0.332 C 
BRANCH   9  10
ATOM     10  O   ARG A   1      37.575 -22.170 -11.540  0.00  0.00    -0.479 OA
ATOM     11  H   ARG A   1      37.408 -21.648 -10.779  0.00  0.00    +0.295 HD
ENDBRANCH   9  10
ENDBRANCH   2   9
ENDBRANCH   1   2
BRANCH   1  12
ATOM     12  CG  ARG A   1      35.036 -24.143 -14.854  0.00  0.00    +0.029 C 
BRANCH  12  13
ATOM     13  CD  ARG A   1      35.442 -22.755 -15.341  0.00  0.00    +0.129 C 
BRANCH  13  14
ATOM     14  NE  ARG A   1      35.756 -22.824 -16.769  0.00  0.00    -0.240 NA
BRANCH  14  17
ATOM     15  NH1 ARG A   1      37.451 -21.273 -16.461  0.00  0.00    -0.370 N 
ATOM     16  NH2 ARG A   1      36.473 -21.343 -18.518  0.00  0.00    -0.370 N 
ATOM     17  CZ  ARG A   1      36.498 -21.876 -17.249  0.00  0.00    +0.189 C 
ATOM     18 HH11 ARG A   1      37.572 -21.563 -15.528  0.00  0.00    +0.159 HD
ATOM     19 HH12 ARG A   1      38.012 -20.554 -16.830  0.00  0.00    +0.159 HD
ATOM     20 HH21 ARG A   1      35.835 -21.687 -19.184  0.00  0.00    +0.159 HD
ATOM     21 HH22 ARG A   1      37.095 -20.619 -18.761  0.00  0.00    +0.159 HD
ENDBRANCH  14  17
ENDBRANCH  13  14
ENDBRANCH  12  13
ENDBRANCH   1  12
TORSDOF 8
ENDMDL
MODEL 9
REMARK VINA RESULT:      -6.1      9.915     12.758
REMARK  Name = 67427
REMARK  8 active torsions:
REMARK  status: ('A' for Active; 'I' for Inactive)
REMARK    1  A    between atoms: CB_1  and  CA_2
REMARK    2  A    between atoms: CB_1  and  CG_12
REMARK    3  A    between atoms: CA_2  and  N_4
REMARK    4  A    between atoms: CA_2  and  C_9
REMARK    5  A    between atoms: C_9  and  O_10
REMARK    6  A    between atoms: CG_12  and  CD_13
REMARK    7  A    between atoms: CD_13  and  NE_14
REMARK    8  A    between atoms: NE_14  and  CZ_17
REMARK                            x       y       z     vdW  Elec       q    Type
REMARK                         _______ _______ _______ _____ _____    ______ ____
ROOT
ATOM      1  CB  ARG A   1      35.337 -18.556 -23.183  0.00  0.00    +0.033 C 
ENDROOT
BRANCH   1   2
ATOM      2  CA  ARG A   1      34.508 -18.353 -21.912  0.00  0.00    +0.171 C 
BRANCH   2   4
ATOM      3  O   UNK A   0      33.059 -15.841 -22.048  0.00  0.00    -0.275 OA
ATOM      4  N   ARG A   1      34.826 -17.121 -21.236  0.00  0.00    -0.297 N 
ATOM      5  C   UNK A   0      34.070 -15.966 -21.362  0.00  0.00    +0.223 C 
ATOM      6  C   UNK A   0      34.610 -14.834 -20.530  0.00  0.00    +0.095 C 
ATOM      7  H   ARG A   1      35.621 -17.099 -20.655  0.00  0.00    +0.150 HD
ENDBRANCH   2   4
BRANCH   2   9
ATOM      8  OXT ARG A   1      35.705 -19.758 -20.320  0.00  0.00    -0.248 OA
ATOM      9  C   ARG A   1      34.674 -19.494 -20.925  0.00  0.00    +0.332 C 
BRANCH   9  10
ATOM     10  O   ARG A   1      33.518 -20.186 -20.750  0.00  0.00    -0.479 OA
ATOM     11  H   ARG A   1      33.467 -20.853 -20.093  0.00  0.00    +0.295 HD
ENDBRANCH   9  10
ENDBRANCH   2   9
ENDBRANCH   1   2
BRANCH   1  12
ATOM     12  CG  ARG A   1      34.594 -18.214 -24.480  0.00  0.00    +0.029 C 
BRANCH  12  13
ATOM     13  CD  ARG A   1      34.922 -16.798 -24.946  0.00  0.00    +0.129 C 
BRANCH  13  14
ATOM     14  NE  ARG A   1      33.896 -16.359 -25.893  0.00  0.00    -0.240 NA
BRANCH  14  17
ATOM     15  NH1 ARG A   1      32.378 -14.719 -26.510  0.00  0.00    -0.370 N 
ATOM     16  NH2 ARG A   1      33.518 -14.395 -24.563  0.00  0.00    -0.370 N 
ATOM     17  CZ  ARG A   1      33.318 -15.225 -25.642  0.00  0.00    +0.189 C 
ATOM     18 HH11 ARG A   1      32.142 -15.217 -27.325  0.00  0.00    +0.159 HD
ATOM     19 HH12 ARG A   1      31.942 -13.858 -26.315  0.00  0.00    +0.159 HD
ATOM     20 HH21 ARG A   1      34.167 -14.643 -23.865  0.00  0.00    +0.159 HD
ATOM     21 HH22 ARG A   1      33.012 -13.555 -24.487  0.00  0.00    +0.159 HD
ENDBRANCH  14  17
ENDBRANCH  13  14
ENDBRANCH  12  13
ENDBRANCH   1  12
TORSDOF 8
ENDMDL
