MODEL 1
REMARK VINA RESULT:      -6.1      0.000      0.000
REMARK  Name = 4354
REMARK  6 active torsions:
REMARK  status: ('A' for Active; 'I' for Inactive)
REMARK    1  A    between atoms: O_1  and  P_2
REMARK    2  A    between atoms: O_1  and  C_8
REMARK    3  A    between atoms: P_2  and  O_4
REMARK    4  A    between atoms: P_2  and  O_6
REMARK    5  A    between atoms: C_8  and  C_9
REMARK    6  A    between atoms: C_9  and  N_12
REMARK                            x       y       z     vdW  Elec       q    Type
REMARK                         _______ _______ _______ _____ _____    ______ ____
ROOT
ATOM      1  O   UNL     1      38.862 -26.523 -14.048  0.00  0.00    -0.272 OA
ENDROOT
BRANCH   1   2
ATOM      2  P   UNL     1      40.367 -26.104 -14.465  0.00  0.00    +0.473 P 
ATOM      3  O   UNL     1      41.434 -27.078 -14.060  0.00  0.00    -0.227 OA
BRANCH   2   4
ATOM      4  O   UNL     1      40.531 -24.611 -13.865  0.00  0.00    -0.303 OA
ATOM      5  H   UNL     1      40.857 -24.664 -12.953  0.00  0.00    +0.222 HD
ENDBRANCH   2   4
BRANCH   2   6
ATOM      6  O   UNL     1      40.240 -25.854 -16.058  0.00  0.00    -0.303 OA
ATOM      7  H   UNL     1      39.305 -25.752 -16.296  0.00  0.00    +0.222 HD
ENDBRANCH   2   6
ENDBRANCH   1   2
BRANCH   1   8
ATOM      8  C   UNL     1      37.786 -26.063 -14.854  0.00  0.00    +0.176 C 
BRANCH   8   9
ATOM      9  C   UNL     1      37.092 -24.907 -14.156  0.00  0.00    +0.138 C 
BRANCH   9  12
ATOM     10 BR   UNL     1      34.726 -23.813 -15.284  0.00  0.00    +0.040 Br
ATOM     11  O   UNL     1      38.724 -23.171 -15.715  0.00  0.00    -0.274 OA
ATOM     12  N   UNL     1      36.616 -23.916 -15.108  0.00  0.00    -0.224 N 
ATOM     13  C   UNL     1      37.497 -23.113 -15.824  0.00  0.00    +0.235 C 
ATOM     14  C   UNL     1      36.887 -22.120 -16.784  0.00  0.00    +0.096 C 
ENDBRANCH   9  12
ENDBRANCH   8   9
ENDBRANCH   1   8
TORSDOF 6
ENDMDL
MODEL 2
REMARK VINA RESULT:      -6.1      3.845      4.403
REMARK  Name = 4354
REMARK  6 active torsions:
REMARK  status: ('A' for Active; 'I' for Inactive)
REMARK    1  A    between atoms: O_1  and  P_2
REMARK    2  A    between atoms: O_1  and  C_8
REMARK    3  A    between atoms: P_2  and  O_4
REMARK    4  A    between atoms: P_2  and  O_6
REMARK    5  A    between atoms: C_8  and  C_9
REMARK    6  A    between atoms: C_9  and  N_12
REMARK                            x       y       z     vdW  Elec       q    Type
REMARK                         _______ _______ _______ _____ _____    ______ ____
ROOT
ATOM      1  O   UNL     1      36.356 -25.636 -11.683  0.00  0.00    -0.272 OA
ENDROOT
BRANCH   1   2
ATOM      2  P   UNL     1      36.050 -24.157 -11.107  0.00  0.00    +0.473 P 
ATOM      3  O   UNL     1      37.236 -23.240 -11.047  0.00  0.00    -0.227 OA
BRANCH   2   4
ATOM      4  O   UNL     1      35.321 -24.438  -9.691  0.00  0.00    -0.303 OA
ATOM      5  H   UNL     1      34.407 -24.723  -9.849  0.00  0.00    +0.222 HD
ENDBRANCH   2   4
BRANCH   2   6
ATOM      6  O   UNL     1      34.841 -23.648 -12.053  0.00  0.00    -0.303 OA
ATOM      7  H   UNL     1      35.080 -22.797 -12.454  0.00  0.00    +0.222 HD
ENDBRANCH   2   6
ENDBRANCH   1   2
BRANCH   1   8
ATOM      8  C   UNL     1      37.584 -25.853 -12.367  0.00  0.00    +0.176 C 
BRANCH   8   9
ATOM      9  C   UNL     1      37.307 -26.064 -13.845  0.00  0.00    +0.138 C 
BRANCH   9  12
ATOM     10 BR   UNL     1      39.719 -25.130 -15.017  0.00  0.00    +0.040 Br
ATOM     11  O   UNL     1      35.858 -23.841 -14.879  0.00  0.00    -0.274 OA
ATOM     12  N   UNL     1      37.859 -24.987 -14.651  0.00  0.00    -0.224 N 
ATOM     13  C   UNL     1      37.066 -23.941 -15.110  0.00  0.00    +0.235 C 
ATOM     14  C   UNL     1      37.750 -22.880 -15.938  0.00  0.00    +0.096 C 
ENDBRANCH   9  12
ENDBRANCH   8   9
ENDBRANCH   1   8
TORSDOF 6
ENDMDL
MODEL 3
REMARK VINA RESULT:      -6.1      2.004      2.822
REMARK  Name = 4354
REMARK  6 active torsions:
REMARK  status: ('A' for Active; 'I' for Inactive)
REMARK    1  A    between atoms: O_1  and  P_2
REMARK    2  A    between atoms: O_1  and  C_8
REMARK    3  A    between atoms: P_2  and  O_4
REMARK    4  A    between atoms: P_2  and  O_6
REMARK    5  A    between atoms: C_8  and  C_9
REMARK    6  A    between atoms: C_9  and  N_12
REMARK                            x       y       z     vdW  Elec       q    Type
REMARK                         _______ _______ _______ _____ _____    ______ ____
ROOT
ATOM      1  O   UNL     1      38.847 -26.864 -14.542  0.00  0.00    -0.272 OA
ENDROOT
BRANCH   1   2
ATOM      2  P   UNL     1      40.175 -25.947 -14.635  0.00  0.00    +0.473 P 
ATOM      3  O   UNL     1      40.074 -24.613 -13.954  0.00  0.00    -0.227 OA
BRANCH   2   4
ATOM      4  O   UNL     1      40.495 -25.891 -16.219  0.00  0.00    -0.303 OA
ATOM      5  H   UNL     1      40.709 -24.979 -16.473  0.00  0.00    +0.222 HD
ENDBRANCH   2   4
BRANCH   2   6
ATOM      6  O   UNL     1      41.325 -26.924 -14.056  0.00  0.00    -0.303 OA
ATOM      7  H   UNL     1      41.485 -27.644 -14.686  0.00  0.00    +0.222 HD
ENDBRANCH   2   6
ENDBRANCH   1   2
BRANCH   1   8
ATOM      8  C   UNL     1      37.595 -26.274 -14.869  0.00  0.00    +0.176 C 
BRANCH   8   9
ATOM      9  C   UNL     1      36.768 -26.115 -13.606  0.00  0.00    +0.138 C 
BRANCH   9  12
ATOM     10 BR   UNL     1      35.673 -23.602 -14.352  0.00  0.00    +0.040 Br
ATOM     11  O   UNL     1      37.957 -24.987 -11.278  0.00  0.00    -0.274 OA
ATOM     12  N   UNL     1      36.683 -24.723 -13.195  0.00  0.00    -0.224 N 
ATOM     13  C   UNL     1      37.301 -24.268 -12.035  0.00  0.00    +0.235 C 
ATOM     14  C   UNL     1      37.144 -22.802 -11.710  0.00  0.00    +0.096 C 
ENDBRANCH   9  12
ENDBRANCH   8   9
ENDBRANCH   1   8
TORSDOF 6
ENDMDL
MODEL 4
REMARK VINA RESULT:      -6.0      2.003      2.339
REMARK  Name = 4354
REMARK  6 active torsions:
REMARK  status: ('A' for Active; 'I' for Inactive)
REMARK    1  A    between atoms: O_1  and  P_2
REMARK    2  A    between atoms: O_1  and  C_8
REMARK    3  A    between atoms: P_2  and  O_4
REMARK    4  A    between atoms: P_2  and  O_6
REMARK    5  A    between atoms: C_8  and  C_9
REMARK    6  A    between atoms: C_9  and  N_12
REMARK                            x       y       z     vdW  Elec       q    Type
REMARK                         _______ _______ _______ _____ _____    ______ ____
ROOT
ATOM      1  O   UNL     1      39.133 -26.294 -13.862  0.00  0.00    -0.272 OA
ENDROOT
BRANCH   1   2
ATOM      2  P   UNL     1      40.003 -25.384 -14.875  0.00  0.00    +0.473 P 
ATOM      3  O   UNL     1      40.674 -26.135 -15.988  0.00  0.00    -0.227 OA
BRANCH   2   4
ATOM      4  O   UNL     1      40.999 -24.564 -13.899  0.00  0.00    -0.303 OA
ATOM      5  H   UNL     1      41.673 -25.166 -13.547  0.00  0.00    +0.222 HD
ENDBRANCH   2   4
BRANCH   2   6
ATOM      6  O   UNL     1      38.941 -24.262 -15.352  0.00  0.00    -0.303 OA
ATOM      7  H   UNL     1      38.382 -24.624 -16.057  0.00  0.00    +0.222 HD
ENDBRANCH   2   6
ENDBRANCH   1   2
BRANCH   1   8
ATOM      8  C   UNL     1      38.411 -25.645 -12.823  0.00  0.00    +0.176 C 
BRANCH   8   9
ATOM      9  C   UNL     1      36.967 -26.113 -12.843  0.00  0.00    +0.138 C 
BRANCH   9  12
ATOM     10 BR   UNL     1      35.403 -23.868 -12.081  0.00  0.00    +0.040 Br
ATOM     11  O   UNL     1      36.203 -25.812 -15.569  0.00  0.00    -0.274 OA
ATOM     12  N   UNL     1      36.081 -25.089 -13.372  0.00  0.00    -0.224 N 
ATOM     13  C   UNL     1      35.768 -25.026 -14.725  0.00  0.00    +0.235 C 
ATOM     14  C   UNL     1      34.836 -23.919 -15.158  0.00  0.00    +0.096 C 
ENDBRANCH   9  12
ENDBRANCH   8   9
ENDBRANCH   1   8
TORSDOF 6
ENDMDL
MODEL 5
REMARK VINA RESULT:      -5.8      2.051      2.949
REMARK  Name = 4354
REMARK  6 active torsions:
REMARK  status: ('A' for Active; 'I' for Inactive)
REMARK    1  A    between atoms: O_1  and  P_2
REMARK    2  A    between atoms: O_1  and  C_8
REMARK    3  A    between atoms: P_2  and  O_4
REMARK    4  A    between atoms: P_2  and  O_6
REMARK    5  A    between atoms: C_8  and  C_9
REMARK    6  A    between atoms: C_9  and  N_12
REMARK                            x       y       z     vdW  Elec       q    Type
REMARK                         _______ _______ _______ _____ _____    ______ ____
ROOT
ATOM      1  O   UNL     1      39.161 -24.566 -14.327  0.00  0.00    -0.272 OA
ENDROOT
BRANCH   1   2
ATOM      2  P   UNL     1      39.889 -25.964 -14.684  0.00  0.00    +0.473 P 
ATOM      3  O   UNL     1      41.026 -26.338 -13.778  0.00  0.00    -0.227 OA
BRANCH   2   4
ATOM      4  O   UNL     1      40.273 -25.811 -16.247  0.00  0.00    -0.303 OA
ATOM      5  H   UNL     1      40.682 -26.633 -16.561  0.00  0.00    +0.222 HD
ENDBRANCH   2   4
BRANCH   2   6
ATOM      6  O   UNL     1      38.659 -27.014 -14.703  0.00  0.00    -0.303 OA
ATOM      7  H   UNL     1      38.887 -27.769 -15.268  0.00  0.00    +0.222 HD
ENDBRANCH   2   6
ENDBRANCH   1   2
BRANCH   1   8
ATOM      8  C   UNL     1      37.972 -24.226 -15.029  0.00  0.00    +0.176 C 
BRANCH   8   9
ATOM      9  C   UNL     1      37.304 -23.045 -14.347  0.00  0.00    +0.138 C 
BRANCH   9  12
ATOM     10 BR   UNL     1      34.841 -24.225 -13.570  0.00  0.00    +0.040 Br
ATOM     11  O   UNL     1      38.135 -22.816 -11.634  0.00  0.00    -0.274 OA
ATOM     12  N   UNL     1      36.539 -23.463 -13.184  0.00  0.00    -0.224 N 
ATOM     13  C   UNL     1      37.034 -23.308 -11.894  0.00  0.00    +0.235 C 
ATOM     14  C   UNL     1      36.150 -23.778 -10.764  0.00  0.00    +0.096 C 
ENDBRANCH   9  12
ENDBRANCH   8   9
ENDBRANCH   1   8
TORSDOF 6
ENDMDL
MODEL 6
REMARK VINA RESULT:      -5.8      3.899      4.837
REMARK  Name = 4354
REMARK  6 active torsions:
REMARK  status: ('A' for Active; 'I' for Inactive)
REMARK    1  A    between atoms: O_1  and  P_2
REMARK    2  A    between atoms: O_1  and  C_8
REMARK    3  A    between atoms: P_2  and  O_4
REMARK    4  A    between atoms: P_2  and  O_6
REMARK    5  A    between atoms: C_8  and  C_9
REMARK    6  A    between atoms: C_9  and  N_12
REMARK                            x       y       z     vdW  Elec       q    Type
REMARK                         _______ _______ _______ _____ _____    ______ ____
ROOT
ATOM      1  O   UNL     1      36.286 -23.217 -11.837  0.00  0.00    -0.272 OA
ENDROOT
BRANCH   1   2
ATOM      2  P   UNL     1      35.683 -24.557 -11.163  0.00  0.00    +0.473 P 
ATOM      3  O   UNL     1      35.343 -24.439  -9.706  0.00  0.00    -0.227 OA
BRANCH   2   4
ATOM      4  O   UNL     1      36.773 -25.695 -11.528  0.00  0.00    -0.303 OA
ATOM      5  H   UNL     1      36.669 -25.956 -12.457  0.00  0.00    +0.222 HD
ENDBRANCH   2   4
BRANCH   2   6
ATOM      6  O   UNL     1      34.436 -24.913 -12.129  0.00  0.00    -0.303 OA
ATOM      7  H   UNL     1      34.575 -25.786 -12.529  0.00  0.00    +0.222 HD
ENDBRANCH   2   6
ENDBRANCH   1   2
BRANCH   1   8
ATOM      8  C   UNL     1      37.523 -23.309 -12.532  0.00  0.00    +0.176 C 
BRANCH   8   9
ATOM      9  C   UNL     1      37.258 -23.375 -14.026  0.00  0.00    +0.138 C 
BRANCH   9  12
ATOM     10 BR   UNL     1      39.287 -25.279 -14.594  0.00  0.00    +0.040 Br
ATOM     11  O   UNL     1      35.232 -25.152 -14.945  0.00  0.00    -0.274 OA
ATOM     12  N   UNL     1      37.472 -24.715 -14.547  0.00  0.00    -0.224 N 
ATOM     13  C   UNL     1      36.412 -25.508 -14.973  0.00  0.00    +0.235 C 
ATOM     14  C   UNL     1      36.757 -26.882 -15.496  0.00  0.00    +0.096 C 
ENDBRANCH   9  12
ENDBRANCH   8   9
ENDBRANCH   1   8
TORSDOF 6
ENDMDL
MODEL 7
REMARK VINA RESULT:      -5.7      3.379      4.499
REMARK  Name = 4354
REMARK  6 active torsions:
REMARK  status: ('A' for Active; 'I' for Inactive)
REMARK    1  A    between atoms: O_1  and  P_2
REMARK    2  A    between atoms: O_1  and  C_8
REMARK    3  A    between atoms: P_2  and  O_4
REMARK    4  A    between atoms: P_2  and  O_6
REMARK    5  A    between atoms: C_8  and  C_9
REMARK    6  A    between atoms: C_9  and  N_12
REMARK                            x       y       z     vdW  Elec       q    Type
REMARK                         _______ _______ _______ _____ _____    ______ ____
ROOT
ATOM      1  O   UNL     1      34.988 -24.501 -12.478  0.00  0.00    -0.272 OA
ENDROOT
BRANCH   1   2
ATOM      2  P   UNL     1      36.124 -24.572 -11.330  0.00  0.00    +0.473 P 
ATOM      3  O   UNL     1      37.045 -23.389 -11.273  0.00  0.00    -0.227 OA
BRANCH   2   4
ATOM      4  O   UNL     1      36.846 -25.997 -11.590  0.00  0.00    -0.303 OA
ATOM      5  H   UNL     1      37.155 -26.360 -10.745  0.00  0.00    +0.222 HD
ENDBRANCH   2   4
BRANCH   2   6
ATOM      6  O   UNL     1      35.261 -24.832  -9.988  0.00  0.00    -0.303 OA
ATOM      7  H   UNL     1      34.390 -24.414 -10.078  0.00  0.00    +0.222 HD
ENDBRANCH   2   6
ENDBRANCH   1   2
BRANCH   1   8
ATOM      8  C   UNL     1      35.310 -23.863 -13.707  0.00  0.00    +0.176 C 
BRANCH   8   9
ATOM      9  C   UNL     1      35.878 -24.887 -14.674  0.00  0.00    +0.138 C 
BRANCH   9  12
ATOM     10 BR   UNL     1      37.613 -22.945 -15.808  0.00  0.00    +0.040 Br
ATOM     11  O   UNL     1      38.065 -26.624 -14.122  0.00  0.00    -0.274 OA
ATOM     12  N   UNL     1      37.275 -24.620 -14.974  0.00  0.00    -0.224 N 
ATOM     13  C   UNL     1      38.274 -25.536 -14.664  0.00  0.00    +0.235 C 
ATOM     14  C   UNL     1      39.689 -25.150 -15.024  0.00  0.00    +0.096 C 
ENDBRANCH   9  12
ENDBRANCH   8   9
ENDBRANCH   1   8
TORSDOF 6
ENDMDL
MODEL 8
REMARK VINA RESULT:      -5.7      8.127      9.364
REMARK  Name = 4354
REMARK  6 active torsions:
REMARK  status: ('A' for Active; 'I' for Inactive)
REMARK    1  A    between atoms: O_1  and  P_2
REMARK    2  A    between atoms: O_1  and  C_8
REMARK    3  A    between atoms: P_2  and  O_4
REMARK    4  A    between atoms: P_2  and  O_6
REMARK    5  A    between atoms: C_8  and  C_9
REMARK    6  A    between atoms: C_9  and  N_12
REMARK                            x       y       z     vdW  Elec       q    Type
REMARK                         _______ _______ _______ _____ _____    ______ ____
ROOT
ATOM      1  O   UNL     1      29.410 -22.326 -16.995  0.00  0.00    -0.272 OA
ENDROOT
BRANCH   1   2
ATOM      2  P   UNL     1      27.857 -22.774 -16.957  0.00  0.00    +0.473 P 
ATOM      3  O   UNL     1      27.543 -24.042 -17.696  0.00  0.00    -0.227 OA
BRANCH   2   4
ATOM      4  O   UNL     1      27.064 -21.461 -17.471  0.00  0.00    -0.303 OA
ATOM      5  H   UNL     1      26.147 -21.699 -17.678  0.00  0.00    +0.222 HD
ENDBRANCH   2   4
BRANCH   2   6
ATOM      6  O   UNL     1      27.533 -22.808 -15.373  0.00  0.00    -0.303 OA
ATOM      7  H   UNL     1      27.698 -23.700 -15.028  0.00  0.00    +0.222 HD
ENDBRANCH   2   6
ENDBRANCH   1   2
BRANCH   1   8
ATOM      8  C   UNL     1      30.334 -23.026 -16.172  0.00  0.00    +0.176 C 
BRANCH   8   9
ATOM      9  C   UNL     1      31.720 -22.941 -16.786  0.00  0.00    +0.138 C 
BRANCH   9  12
ATOM     10 BR   UNL     1      32.142 -23.533 -14.041  0.00  0.00    +0.040 Br
ATOM     11  O   UNL     1      34.484 -23.306 -17.365  0.00  0.00    -0.274 OA
ATOM     12  N   UNL     1      32.752 -23.299 -15.826  0.00  0.00    -0.224 N 
ATOM     13  C   UNL     1      34.079 -23.454 -16.209  0.00  0.00    +0.235 C 
ATOM     14  C   UNL     1      35.062 -23.826 -15.124  0.00  0.00    +0.096 C 
ENDBRANCH   9  12
ENDBRANCH   8   9
ENDBRANCH   1   8
TORSDOF 6
ENDMDL
MODEL 9
REMARK VINA RESULT:      -5.6      9.176     10.399
REMARK  Name = 4354
REMARK  6 active torsions:
REMARK  status: ('A' for Active; 'I' for Inactive)
REMARK    1  A    between atoms: O_1  and  P_2
REMARK    2  A    between atoms: O_1  and  C_8
REMARK    3  A    between atoms: P_2  and  O_4
REMARK    4  A    between atoms: P_2  and  O_6
REMARK    5  A    between atoms: C_8  and  C_9
REMARK    6  A    between atoms: C_9  and  N_12
REMARK                            x       y       z     vdW  Elec       q    Type
REMARK                         _______ _______ _______ _____ _____    ______ ____
ROOT
ATOM      1  O   UNL     1      35.328 -17.416 -20.588  0.00  0.00    -0.272 OA
ENDROOT
BRANCH   1   2
ATOM      2  P   UNL     1      34.598 -16.156 -21.290  0.00  0.00    +0.473 P 
ATOM      3  O   UNL     1      34.960 -15.933 -22.729  0.00  0.00    -0.227 OA
BRANCH   2   4
ATOM      4  O   UNL     1      34.921 -14.921 -20.297  0.00  0.00    -0.303 OA
ATOM      5  H   UNL     1      35.805 -15.038 -19.915  0.00  0.00    +0.222 HD
ENDBRANCH   2   4
BRANCH   2   6
ATOM      6  O   UNL     1      33.032 -16.453 -21.018  0.00  0.00    -0.303 OA
ATOM      7  H   UNL     1      32.583 -16.618 -21.863  0.00  0.00    +0.222 HD
ENDBRANCH   2   6
ENDBRANCH   1   2
BRANCH   1   8
ATOM      8  C   UNL     1      35.946 -18.388 -21.421  0.00  0.00    +0.176 C 
BRANCH   8   9
ATOM      9  C   UNL     1      34.939 -19.469 -21.769  0.00  0.00    +0.138 C 
BRANCH   9  12
ATOM     10 BR   UNL     1      36.333 -21.027 -19.846  0.00  0.00    +0.040 Br
ATOM     11  O   UNL     1      32.424 -20.347 -20.764  0.00  0.00    -0.274 OA
ATOM     12  N   UNL     1      34.738 -20.388 -20.660  0.00  0.00    -0.224 N 
ATOM     13  C   UNL     1      33.464 -20.757 -20.243  0.00  0.00    +0.235 C 
ATOM     14  C   UNL     1      33.380 -21.718 -19.081  0.00  0.00    +0.096 C 
ENDBRANCH   9  12
ENDBRANCH   8   9
ENDBRANCH   1   8
TORSDOF 6
ENDMDL
