MODEL 1
REMARK VINA RESULT:      -6.7      0.000      0.000
REMARK  Name = 642409
REMARK  4 active torsions:
REMARK  status: ('A' for Active; 'I' for Inactive)
REMARK    1  A    between atoms: C_1  and  C_2
REMARK    2  A    between atoms: C_1  and  O_8
REMARK    3  A    between atoms: C_1  and  C_10
REMARK    4  A    between atoms: C_10  and  C_12
REMARK                            x       y       z     vdW  Elec       q    Type
REMARK                         _______ _______ _______ _____ _____    ______ ____
ROOT
ATOM      1  C   UNL     1      35.805 -18.669 -21.409  0.00  0.00    +0.134 C 
ENDROOT
BRANCH   1   2
ATOM      2  C   UNL     1      35.150 -19.803 -20.696  0.00  0.00    +0.004 C 
ATOM      3  C   UNL     1      35.930 -20.775 -20.067  0.00  0.00    -0.002 C 
ATOM      4  C   UNL     1      33.758 -19.892 -20.655  0.00  0.00    -0.002 C 
ATOM      5  C   UNL     1      35.317 -21.835 -19.399  0.00  0.00    -0.000 C 
ATOM      6  C   UNL     1      33.146 -20.953 -19.986  0.00  0.00    -0.000 C 
ATOM      7  C   UNL     1      33.926 -21.924 -19.359  0.00  0.00    -0.000 C 
ENDBRANCH   1   2
BRANCH   1   8
ATOM      8  O   UNL     1      35.401 -17.439 -20.789  0.00  0.00    -0.380 OA
ATOM      9  H   UNL     1      34.446 -17.462 -20.617  0.00  0.00    +0.211 HD
ENDBRANCH   1   8
BRANCH   1  10
ATOM     10  C   UNL     1      35.464 -18.575 -22.914  0.00  0.00    +0.051 C 
BRANCH  10  12
ATOM     11 CL   UNL     1      34.741 -17.154 -25.149  0.00  0.00    -0.114 Cl
ATOM     12  C   UNL     1      35.035 -17.191 -23.396  0.00  0.00    +0.098 C 
ENDBRANCH  10  12
ENDBRANCH   1  10
TORSDOF 4
ENDMDL
MODEL 2
REMARK VINA RESULT:      -6.5      4.126      5.756
REMARK  Name = 642409
REMARK  4 active torsions:
REMARK  status: ('A' for Active; 'I' for Inactive)
REMARK    1  A    between atoms: C_1  and  C_2
REMARK    2  A    between atoms: C_1  and  O_8
REMARK    3  A    between atoms: C_1  and  C_10
REMARK    4  A    between atoms: C_10  and  C_12
REMARK                            x       y       z     vdW  Elec       q    Type
REMARK                         _______ _______ _______ _____ _____    ______ ____
ROOT
ATOM      1  C   UNL     1      34.097 -22.825 -18.688  0.00  0.00    +0.134 C 
ENDROOT
BRANCH   1   2
ATOM      2  C   UNL     1      34.102 -21.586 -19.517  0.00  0.00    +0.004 C 
ATOM      3  C   UNL     1      35.311 -21.057 -19.973  0.00  0.00    -0.002 C 
ATOM      4  C   UNL     1      32.900 -20.956 -19.839  0.00  0.00    -0.002 C 
ATOM      5  C   UNL     1      35.316 -19.898 -20.749  0.00  0.00    -0.000 C 
ATOM      6  C   UNL     1      32.906 -19.796 -20.616  0.00  0.00    -0.000 C 
ATOM      7  C   UNL     1      34.114 -19.268 -21.071  0.00  0.00    -0.000 C 
ENDBRANCH   1   2
BRANCH   1   8
ATOM      8  O   UNL     1      33.976 -23.961 -19.557  0.00  0.00    -0.380 OA
ATOM      9  H   UNL     1      34.582 -23.858 -20.309  0.00  0.00    +0.211 HD
ENDBRANCH   1   8
BRANCH   1  10
ATOM     10  C   UNL     1      32.952 -22.899 -17.651  0.00  0.00    +0.051 C 
BRANCH  10  12
ATOM     11 CL   UNL     1      35.123 -23.181 -15.994  0.00  0.00    -0.114 Cl
ATOM     12  C   UNL     1      33.372 -23.350 -16.254  0.00  0.00    +0.098 C 
ENDBRANCH  10  12
ENDBRANCH   1  10
TORSDOF 4
ENDMDL
MODEL 3
REMARK VINA RESULT:      -6.5      2.062      2.132
REMARK  Name = 642409
REMARK  4 active torsions:
REMARK  status: ('A' for Active; 'I' for Inactive)
REMARK    1  A    between atoms: C_1  and  C_2
REMARK    2  A    between atoms: C_1  and  O_8
REMARK    3  A    between atoms: C_1  and  C_10
REMARK    4  A    between atoms: C_10  and  C_12
REMARK                            x       y       z     vdW  Elec       q    Type
REMARK                         _______ _______ _______ _____ _____    ______ ____
ROOT
ATOM      1  C   UNL     1      34.681 -18.095 -21.857  0.00  0.00    +0.134 C 
ENDROOT
BRANCH   1   2
ATOM      2  C   UNL     1      34.458 -19.317 -21.032  0.00  0.00    +0.004 C 
ATOM      3  C   UNL     1      35.546 -20.088 -20.619  0.00  0.00    -0.002 C 
ATOM      4  C   UNL     1      33.163 -19.690 -20.672  0.00  0.00    -0.002 C 
ATOM      5  C   UNL     1      35.338 -21.231 -19.847  0.00  0.00    -0.000 C 
ATOM      6  C   UNL     1      32.955 -20.834 -19.899  0.00  0.00    -0.000 C 
ATOM      7  C   UNL     1      34.043 -21.604 -19.487  0.00  0.00    -0.000 C 
ENDBRANCH   1   2
BRANCH   1   8
ATOM      8  O   UNL     1      35.801 -18.323 -22.725  0.00  0.00    -0.380 OA
ATOM      9  H   UNL     1      35.781 -17.681 -23.453  0.00  0.00    +0.211 HD
ENDBRANCH   1   8
BRANCH   1  10
ATOM     10  C   UNL     1      34.966 -16.813 -21.042  0.00  0.00    +0.051 C 
BRANCH  10  12
ATOM     11 CL   UNL     1      32.403 -15.864 -20.777  0.00  0.00    -0.114 Cl
ATOM     12  C   UNL     1      34.064 -15.625 -21.367  0.00  0.00    +0.098 C 
ENDBRANCH  10  12
ENDBRANCH   1  10
TORSDOF 4
ENDMDL
MODEL 4
REMARK VINA RESULT:      -6.3      3.815      5.322
REMARK  Name = 642409
REMARK  4 active torsions:
REMARK  status: ('A' for Active; 'I' for Inactive)
REMARK    1  A    between atoms: C_1  and  C_2
REMARK    2  A    between atoms: C_1  and  O_8
REMARK    3  A    between atoms: C_1  and  C_10
REMARK    4  A    between atoms: C_10  and  C_12
REMARK                            x       y       z     vdW  Elec       q    Type
REMARK                         _______ _______ _______ _____ _____    ______ ____
ROOT
ATOM      1  C   UNL     1      33.588 -21.626 -19.707  0.00  0.00    +0.134 C 
ENDROOT
BRANCH   1   2
ATOM      2  C   UNL     1      34.527 -20.602 -20.247  0.00  0.00    +0.004 C 
ATOM      3  C   UNL     1      35.899 -20.728 -20.023  0.00  0.00    -0.002 C 
ATOM      4  C   UNL     1      34.036 -19.519 -20.976  0.00  0.00    -0.002 C 
ATOM      5  C   UNL     1      36.779 -19.770 -20.529  0.00  0.00    -0.000 C 
ATOM      6  C   UNL     1      34.917 -18.562 -21.482  0.00  0.00    -0.000 C 
ATOM      7  C   UNL     1      36.287 -18.687 -21.258  0.00  0.00    -0.000 C 
ENDBRANCH   1   2
BRANCH   1   8
ATOM      8  O   UNL     1      32.427 -20.959 -19.188  0.00  0.00    -0.380 OA
ATOM      9  H   UNL     1      32.517 -20.856 -18.227  0.00  0.00    +0.211 HD
ENDBRANCH   1   8
BRANCH   1  10
ATOM     10  C   UNL     1      34.173 -22.505 -18.578  0.00  0.00    +0.051 C 
BRANCH  10  12
ATOM     11 CL   UNL     1      33.849 -23.413 -16.007  0.00  0.00    -0.114 Cl
ATOM     12  C   UNL     1      33.147 -23.082 -17.607  0.00  0.00    +0.098 C 
ENDBRANCH  10  12
ENDBRANCH   1  10
TORSDOF 4
ENDMDL
MODEL 5
REMARK VINA RESULT:      -6.3      2.668      5.016
REMARK  Name = 642409
REMARK  4 active torsions:
REMARK  status: ('A' for Active; 'I' for Inactive)
REMARK    1  A    between atoms: C_1  and  C_2
REMARK    2  A    between atoms: C_1  and  O_8
REMARK    3  A    between atoms: C_1  and  C_10
REMARK    4  A    between atoms: C_10  and  C_12
REMARK                            x       y       z     vdW  Elec       q    Type
REMARK                         _______ _______ _______ _____ _____    ______ ____
ROOT
ATOM      1  C   UNL     1      34.803 -18.598 -21.053  0.00  0.00    +0.134 C 
ENDROOT
BRANCH   1   2
ATOM      2  C   UNL     1      34.772 -18.098 -22.457  0.00  0.00    +0.004 C 
ATOM      3  C   UNL     1      34.625 -18.998 -23.514  0.00  0.00    -0.002 C 
ATOM      4  C   UNL     1      34.887 -16.732 -22.715  0.00  0.00    -0.002 C 
ATOM      5  C   UNL     1      34.595 -18.530 -24.828  0.00  0.00    -0.000 C 
ATOM      6  C   UNL     1      34.856 -16.265 -24.030  0.00  0.00    -0.000 C 
ATOM      7  C   UNL     1      34.711 -17.164 -25.086  0.00  0.00    -0.000 C 
ENDBRANCH   1   2
BRANCH   1   8
ATOM      8  O   UNL     1      36.164 -18.891 -20.698  0.00  0.00    -0.380 OA
ATOM      9  H   UNL     1      36.728 -18.805 -21.483  0.00  0.00    +0.211 HD
ENDBRANCH   1   8
BRANCH   1  10
ATOM     10  C   UNL     1      33.964 -19.872 -20.805  0.00  0.00    +0.051 C 
BRANCH  10  12
ATOM     11 CL   UNL     1      33.429 -21.897 -19.029  0.00  0.00    -0.114 Cl
ATOM     12  C   UNL     1      34.625 -20.919 -19.912  0.00  0.00    +0.098 C 
ENDBRANCH  10  12
ENDBRANCH   1  10
TORSDOF 4
ENDMDL
MODEL 6
REMARK VINA RESULT:      -6.2      4.656      6.410
REMARK  Name = 642409
REMARK  4 active torsions:
REMARK  status: ('A' for Active; 'I' for Inactive)
REMARK    1  A    between atoms: C_1  and  C_2
REMARK    2  A    between atoms: C_1  and  O_8
REMARK    3  A    between atoms: C_1  and  C_10
REMARK    4  A    between atoms: C_10  and  C_12
REMARK                            x       y       z     vdW  Elec       q    Type
REMARK                         _______ _______ _______ _____ _____    ______ ____
ROOT
ATOM      1  C   UNL     1      33.495 -22.923 -18.239  0.00  0.00    +0.134 C 
ENDROOT
BRANCH   1   2
ATOM      2  C   UNL     1      34.128 -21.896 -19.115  0.00  0.00    +0.004 C 
ATOM      3  C   UNL     1      33.330 -21.005 -19.835  0.00  0.00    -0.002 C 
ATOM      4  C   UNL     1      35.517 -21.825 -19.216  0.00  0.00    -0.002 C 
ATOM      5  C   UNL     1      33.922 -20.044 -20.654  0.00  0.00    -0.000 C 
ATOM      6  C   UNL     1      36.109 -20.863 -20.036  0.00  0.00    -0.000 C 
ATOM      7  C   UNL     1      35.312 -19.973 -20.754  0.00  0.00    -0.000 C 
ENDBRANCH   1   2
BRANCH   1   8
ATOM      8  O   UNL     1      32.144 -22.523 -17.960  0.00  0.00    -0.380 OA
ATOM      9  H   UNL     1      31.859 -21.869 -18.618  0.00  0.00    +0.211 HD
ENDBRANCH   1   8
BRANCH   1  10
ATOM     10  C   UNL     1      34.211 -23.145 -16.887  0.00  0.00    +0.051 C 
BRANCH  10  12
ATOM     11 CL   UNL     1      34.035 -24.447 -14.477  0.00  0.00    -0.114 Cl
ATOM     12  C   UNL     1      33.288 -23.390 -15.697  0.00  0.00    +0.098 C 
ENDBRANCH  10  12
ENDBRANCH   1  10
TORSDOF 4
ENDMDL
MODEL 7
REMARK VINA RESULT:      -6.2      2.875      5.171
REMARK  Name = 642409
REMARK  4 active torsions:
REMARK  status: ('A' for Active; 'I' for Inactive)
REMARK    1  A    between atoms: C_1  and  C_2
REMARK    2  A    between atoms: C_1  and  O_8
REMARK    3  A    between atoms: C_1  and  C_10
REMARK    4  A    between atoms: C_10  and  C_12
REMARK                            x       y       z     vdW  Elec       q    Type
REMARK                         _______ _______ _______ _____ _____    ______ ____
ROOT
ATOM      1  C   UNL     1      35.683 -18.098 -21.859  0.00  0.00    +0.134 C 
ENDROOT
BRANCH   1   2
ATOM      2  C   UNL     1      35.082 -16.736 -21.936  0.00  0.00    +0.004 C 
ATOM      3  C   UNL     1      34.923 -16.112 -23.175  0.00  0.00    -0.002 C 
ATOM      4  C   UNL     1      34.676 -16.085 -20.771  0.00  0.00    -0.002 C 
ATOM      5  C   UNL     1      34.360 -14.838 -23.247  0.00  0.00    -0.000 C 
ATOM      6  C   UNL     1      34.113 -14.810 -20.844  0.00  0.00    -0.000 C 
ATOM      7  C   UNL     1      33.955 -14.187 -22.081  0.00  0.00    -0.000 C 
ENDBRANCH   1   2
BRANCH   1   8
ATOM      8  O   UNL     1      36.600 -18.260 -22.952  0.00  0.00    -0.380 OA
ATOM      9  H   UNL     1      36.119 -18.184 -23.791  0.00  0.00    +0.211 HD
ENDBRANCH   1   8
BRANCH   1  10
ATOM     10  C   UNL     1      34.661 -19.256 -21.923  0.00  0.00    +0.051 C 
BRANCH  10  12
ATOM     11 CL   UNL     1      32.829 -20.299 -20.164  0.00  0.00    -0.114 Cl
ATOM     12  C   UNL     1      34.528 -20.074 -20.641  0.00  0.00    +0.098 C 
ENDBRANCH  10  12
ENDBRANCH   1  10
TORSDOF 4
ENDMDL
MODEL 8
REMARK VINA RESULT:      -6.1      9.723     11.171
REMARK  Name = 642409
REMARK  4 active torsions:
REMARK  status: ('A' for Active; 'I' for Inactive)
REMARK    1  A    between atoms: C_1  and  C_2
REMARK    2  A    between atoms: C_1  and  O_8
REMARK    3  A    between atoms: C_1  and  C_10
REMARK    4  A    between atoms: C_10  and  C_12
REMARK                            x       y       z     vdW  Elec       q    Type
REMARK                         _______ _______ _______ _____ _____    ______ ____
ROOT
ATOM      1  C   UNL     1      32.826  -7.674 -20.824  0.00  0.00    +0.134 C 
ENDROOT
BRANCH   1   2
ATOM      2  C   UNL     1      32.171  -9.011 -20.746  0.00  0.00    +0.004 C 
ATOM      3  C   UNL     1      31.931  -9.599 -19.504  0.00  0.00    -0.002 C 
ATOM      4  C   UNL     1      31.796  -9.674 -21.915  0.00  0.00    -0.002 C 
ATOM      5  C   UNL     1      31.318 -10.850 -19.431  0.00  0.00    -0.000 C 
ATOM      6  C   UNL     1      31.182 -10.925 -21.842  0.00  0.00    -0.000 C 
ATOM      7  C   UNL     1      30.943 -11.513 -20.600  0.00  0.00    -0.000 C 
ENDBRANCH   1   2
BRANCH   1   8
ATOM      8  O   UNL     1      33.168  -7.250 -19.495  0.00  0.00    -0.380 OA
ATOM      9  H   UNL     1      33.434  -6.317 -19.513  0.00  0.00    +0.211 HD
ENDBRANCH   1   8
BRANCH   1  10
ATOM     10  C   UNL     1      31.955  -6.568 -21.464  0.00  0.00    +0.051 C 
BRANCH  10  12
ATOM     11 CL   UNL     1      33.779  -7.053 -23.457  0.00  0.00    -0.114 Cl
ATOM     12  C   UNL     1      32.305  -6.223 -22.909  0.00  0.00    +0.098 C 
ENDBRANCH  10  12
ENDBRANCH   1  10
TORSDOF 4
ENDMDL
MODEL 9
REMARK VINA RESULT:      -6.1      2.744      4.174
REMARK  Name = 642409
REMARK  4 active torsions:
REMARK  status: ('A' for Active; 'I' for Inactive)
REMARK    1  A    between atoms: C_1  and  C_2
REMARK    2  A    between atoms: C_1  and  O_8
REMARK    3  A    between atoms: C_1  and  C_10
REMARK    4  A    between atoms: C_10  and  C_12
REMARK                            x       y       z     vdW  Elec       q    Type
REMARK                         _______ _______ _______ _____ _____    ______ ____
ROOT
ATOM      1  C   UNL     1      34.362 -15.431 -21.461  0.00  0.00    +0.134 C 
ENDROOT
BRANCH   1   2
ATOM      2  C   UNL     1      34.543 -16.730 -22.169  0.00  0.00    +0.004 C 
ATOM      3  C   UNL     1      34.461 -17.929 -21.460  0.00  0.00    -0.002 C 
ATOM      4  C   UNL     1      34.794 -16.747 -23.542  0.00  0.00    -0.002 C 
ATOM      5  C   UNL     1      34.630 -19.144 -22.123  0.00  0.00    -0.000 C 
ATOM      6  C   UNL     1      34.963 -17.964 -24.205  0.00  0.00    -0.000 C 
ATOM      7  C   UNL     1      34.881 -19.162 -23.495  0.00  0.00    -0.000 C 
ENDBRANCH   1   2
BRANCH   1   8
ATOM      8  O   UNL     1      34.922 -15.542 -20.143  0.00  0.00    -0.380 OA
ATOM      9  H   UNL     1      34.270 -15.245 -19.489  0.00  0.00    +0.211 HD
ENDBRANCH   1   8
BRANCH   1  10
ATOM     10  C   UNL     1      32.891 -14.979 -21.313  0.00  0.00    +0.051 C 
BRANCH  10  12
ATOM     11 CL   UNL     1      33.802 -13.287 -23.274  0.00  0.00    -0.114 Cl
ATOM     12  C   UNL     1      32.463 -13.851 -22.248  0.00  0.00    +0.098 C 
ENDBRANCH  10  12
ENDBRANCH   1  10
TORSDOF 4
ENDMDL
