MODEL 1
REMARK VINA RESULT:      -6.5      0.000      0.000
REMARK  Name = 15130
REMARK  9 active torsions:
REMARK  status: ('A' for Active; 'I' for Inactive)
REMARK    1  A    between atoms: C_1  and  C_2
REMARK    2  A    between atoms: C_1  and  C_8
REMARK    3  A    between atoms: C_1  and  C_14
REMARK    4  A    between atoms: C_1  and  C_21
REMARK    5  A    between atoms: C_14  and  C_15
REMARK    6  A    between atoms: C_15  and  N_17
REMARK    7  A    between atoms: C_21  and  C_22
REMARK    8  A    between atoms: C_21  and  O_24
REMARK    9  A    between atoms: O_24  and  C_26
REMARK                            x       y       z     vdW  Elec       q    Type
REMARK                         _______ _______ _______ _____ _____    ______ ____
ROOT
ATOM      1  C   UNL     1      34.604 -24.161 -14.313  0.00  0.00    +0.073 C 
ENDROOT
BRANCH   1   2
ATOM      2  C   UNL     1      35.403 -23.886 -12.999  0.00  0.00    -0.016 C 
ATOM      3  C   UNL     1      35.007 -24.543 -11.875  0.00  0.00    -0.004 C 
ATOM      4  C   UNL     1      36.442 -23.009 -13.069  0.00  0.00    -0.004 C 
ATOM      5  C   UNL     1      35.720 -24.298 -10.702  0.00  0.00    -0.000 C 
ATOM      6  C   UNL     1      37.155 -22.764 -11.895  0.00  0.00    -0.000 C 
ATOM      7  C   UNL     1      36.795 -23.409 -10.712  0.00  0.00    -0.000 C 
ENDBRANCH   1   2
BRANCH   1   8
ATOM      8  C   UNL     1      33.062 -24.077 -14.103  0.00  0.00    -0.016 C 
ATOM      9  C   UNL     1      32.525 -22.849 -13.854  0.00  0.00    -0.004 C 
ATOM     10  C   UNL     1      32.351 -25.237 -14.181  0.00  0.00    -0.004 C 
ATOM     11  C   UNL     1      31.145 -22.775 -13.666  0.00  0.00    -0.000 C 
ATOM     12  C   UNL     1      30.971 -25.163 -13.993  0.00  0.00    -0.000 C 
ATOM     13  C   UNL     1      30.368 -23.931 -13.735  0.00  0.00    -0.000 C 
ENDBRANCH   1   8
BRANCH   1  14
ATOM     14  C   UNL     1      35.098 -25.566 -14.860  0.00  0.00    -0.009 C 
BRANCH  14  15
ATOM     15  C   UNL     1      36.592 -25.733 -15.239  0.00  0.00    -0.058 C 
ATOM     16  C   UNL     1      36.824 -27.096 -15.898  0.00  0.00    -0.023 C 
BRANCH  15  17
ATOM     17  N   UNL     1      37.459 -25.639 -14.063  0.00  0.00    +0.385 N 
ATOM     18  C   UNL     1      38.858 -25.529 -14.470  0.00  0.00    -0.101 C 
ATOM     19  C   UNL     1      37.266 -26.800 -13.195  0.00  0.00    -0.101 C 
ATOM     20  H   UNL     1      37.207 -24.800 -13.540  0.00  0.00    -0.080 HD
ENDBRANCH  15  17
ENDBRANCH  14  15
ENDBRANCH   1  14
BRANCH   1  21
ATOM     21  C   UNL     1      34.976 -23.095 -15.449  0.00  0.00    +0.176 C 
BRANCH  21  22
ATOM     22  C   UNL     1      33.845 -22.708 -16.426  0.00  0.00    +0.044 C 
ATOM     23  C   UNL     1      33.717 -23.704 -17.576  0.00  0.00    +0.004 C 
ENDBRANCH  21  22
BRANCH  21  24
ATOM     24  O   UNL     1      36.104 -23.544 -16.209  0.00  0.00    -0.452 OA
BRANCH  24  26
ATOM     25  O   UNL     1      38.059 -22.406 -15.739  0.00  0.00    -0.250 OA
ATOM     26  C   UNL     1      37.070 -22.609 -16.431  0.00  0.00    +0.317 C 
ATOM     27  C   UNL     1      36.744 -21.838 -17.673  0.00  0.00    +0.121 C 
ENDBRANCH  24  26
ENDBRANCH  21  24
ENDBRANCH   1  21
TORSDOF 9
ENDMDL
MODEL 2
REMARK VINA RESULT:      -6.4      1.683      4.966
REMARK  Name = 15130
REMARK  9 active torsions:
REMARK  status: ('A' for Active; 'I' for Inactive)
REMARK    1  A    between atoms: C_1  and  C_2
REMARK    2  A    between atoms: C_1  and  C_8
REMARK    3  A    between atoms: C_1  and  C_14
REMARK    4  A    between atoms: C_1  and  C_21
REMARK    5  A    between atoms: C_14  and  C_15
REMARK    6  A    between atoms: C_15  and  N_17
REMARK    7  A    between atoms: C_21  and  C_22
REMARK    8  A    between atoms: C_21  and  O_24
REMARK    9  A    between atoms: O_24  and  C_26
REMARK                            x       y       z     vdW  Elec       q    Type
REMARK                         _______ _______ _______ _____ _____    ______ ____
ROOT
ATOM      1  C   UNL     1      35.431 -23.627 -14.444  0.00  0.00    +0.073 C 
ENDROOT
BRANCH   1   2
ATOM      2  C   UNL     1      33.907 -23.948 -14.557  0.00  0.00    -0.016 C 
ATOM      3  C   UNL     1      33.196 -23.286 -15.509  0.00  0.00    -0.004 C 
ATOM      4  C   UNL     1      33.395 -24.868 -13.695  0.00  0.00    -0.004 C 
ATOM      5  C   UNL     1      31.835 -23.572 -15.611  0.00  0.00    -0.000 C 
ATOM      6  C   UNL     1      32.033 -25.154 -13.796  0.00  0.00    -0.000 C 
ATOM      7  C   UNL     1      31.253 -24.507 -14.755  0.00  0.00    -0.000 C 
ENDBRANCH   1   2
BRANCH   1   8
ATOM      8  C   UNL     1      35.918 -23.548 -12.965  0.00  0.00    -0.016 C 
ATOM      9  C   UNL     1      35.240 -24.284 -12.038  0.00  0.00    -0.004 C 
ATOM     10  C   UNL     1      36.988 -22.749 -12.695  0.00  0.00    -0.004 C 
ATOM     11  C   UNL     1      35.676 -24.213 -10.716  0.00  0.00    -0.000 C 
ATOM     12  C   UNL     1      37.423 -22.679 -11.372  0.00  0.00    -0.000 C 
ATOM     13  C   UNL     1      36.767 -23.411 -10.382  0.00  0.00    -0.000 C 
ENDBRANCH   1   8
BRANCH   1  14
ATOM     14  C   UNL     1      35.677 -22.293 -15.268  0.00  0.00    -0.009 C 
BRANCH  14  15
ATOM     15  C   UNL     1      36.425 -22.383 -16.623  0.00  0.00    -0.058 C 
ATOM     16  C   UNL     1      37.737 -21.595 -16.561  0.00  0.00    -0.023 C 
BRANCH  15  17
ATOM     17  N   UNL     1      35.617 -21.844 -17.719  0.00  0.00    +0.385 N 
ATOM     18  C   UNL     1      34.666 -22.847 -18.192  0.00  0.00    -0.101 C 
ATOM     19  C   UNL     1      36.479 -21.397 -18.813  0.00  0.00    -0.101 C 
ATOM     20  H   UNL     1      35.093 -21.040 -17.372  0.00  0.00    -0.080 HD
ENDBRANCH  15  17
ENDBRANCH  14  15
ENDBRANCH   1  14
BRANCH   1  21
ATOM     21  C   UNL     1      36.314 -24.753 -15.164  0.00  0.00    +0.176 C 
BRANCH  21  22
ATOM     22  C   UNL     1      35.544 -25.950 -15.764  0.00  0.00    +0.044 C 
ATOM     23  C   UNL     1      36.375 -27.229 -15.750  0.00  0.00    +0.004 C 
ENDBRANCH  21  22
BRANCH  21  24
ATOM     24  O   UNL     1      37.315 -25.254 -14.270  0.00  0.00    -0.452 OA
BRANCH  24  26
ATOM     25  O   UNL     1      38.959 -24.163 -15.473  0.00  0.00    -0.250 OA
ATOM     26  C   UNL     1      38.601 -24.937 -14.596  0.00  0.00    +0.317 C 
ATOM     27  C   UNL     1      39.542 -25.692 -13.708  0.00  0.00    +0.121 C 
ENDBRANCH  24  26
ENDBRANCH  21  24
ENDBRANCH   1  21
TORSDOF 9
ENDMDL
MODEL 3
REMARK VINA RESULT:      -6.4      1.818      4.640
REMARK  Name = 15130
REMARK  9 active torsions:
REMARK  status: ('A' for Active; 'I' for Inactive)
REMARK    1  A    between atoms: C_1  and  C_2
REMARK    2  A    between atoms: C_1  and  C_8
REMARK    3  A    between atoms: C_1  and  C_14
REMARK    4  A    between atoms: C_1  and  C_21
REMARK    5  A    between atoms: C_14  and  C_15
REMARK    6  A    between atoms: C_15  and  N_17
REMARK    7  A    between atoms: C_21  and  C_22
REMARK    8  A    between atoms: C_21  and  O_24
REMARK    9  A    between atoms: O_24  and  C_26
REMARK                            x       y       z     vdW  Elec       q    Type
REMARK                         _______ _______ _______ _____ _____    ______ ____
ROOT
ATOM      1  C   UNL     1      35.944 -24.475 -14.648  0.00  0.00    +0.073 C 
ENDROOT
BRANCH   1   2
ATOM      2  C   UNL     1      36.135 -24.052 -13.157  0.00  0.00    -0.016 C 
ATOM      3  C   UNL     1      35.462 -24.763 -12.212  0.00  0.00    -0.004 C 
ATOM      4  C   UNL     1      36.962 -23.000 -12.904  0.00  0.00    -0.004 C 
ATOM      5  C   UNL     1      35.632 -24.386 -10.880  0.00  0.00    -0.000 C 
ATOM      6  C   UNL     1      37.132 -22.623 -11.571  0.00  0.00    -0.000 C 
ATOM      7  C   UNL     1      36.468 -23.317 -10.560  0.00  0.00    -0.000 C 
ENDBRANCH   1   2
BRANCH   1   8
ATOM      8  C   UNL     1      36.322 -23.337 -15.645  0.00  0.00    -0.016 C 
ATOM      9  C   UNL     1      37.529 -22.727 -15.477  0.00  0.00    -0.004 C 
ATOM     10  C   UNL     1      35.420 -23.028 -16.619  0.00  0.00    -0.004 C 
ATOM     11  C   UNL     1      37.866 -21.710 -16.369  0.00  0.00    -0.000 C 
ATOM     12  C   UNL     1      35.758 -22.010 -17.511  0.00  0.00    -0.000 C 
ATOM     13  C   UNL     1      36.981 -21.351 -17.386  0.00  0.00    -0.000 C 
ENDBRANCH   1   8
BRANCH   1  14
ATOM     14  C   UNL     1      34.445 -24.975 -14.790  0.00  0.00    -0.009 C 
BRANCH  14  15
ATOM     15  C   UNL     1      33.328 -24.198 -14.047  0.00  0.00    -0.058 C 
ATOM     16  C   UNL     1      32.221 -25.157 -13.597  0.00  0.00    -0.023 C 
BRANCH  15  17
ATOM     17  N   UNL     1      32.726 -23.173 -14.902  0.00  0.00    +0.385 N 
ATOM     18  C   UNL     1      31.599 -22.539 -14.221  0.00  0.00    -0.101 C 
ATOM     19  C   UNL     1      32.296 -23.758 -16.171  0.00  0.00    -0.101 C 
ATOM     20  H   UNL     1      33.428 -22.459 -15.097  0.00  0.00    -0.080 HD
ENDBRANCH  15  17
ENDBRANCH  14  15
ENDBRANCH   1  14
BRANCH   1  21
ATOM     21  C   UNL     1      36.861 -25.736 -15.013  0.00  0.00    +0.176 C 
BRANCH  21  22
ATOM     22  C   UNL     1      36.121 -27.033 -15.406  0.00  0.00    +0.044 C 
ATOM     23  C   UNL     1      36.697 -27.658 -16.674  0.00  0.00    +0.004 C 
ENDBRANCH  21  22
BRANCH  21  24
ATOM     24  O   UNL     1      37.761 -26.030 -13.938  0.00  0.00    -0.452 OA
BRANCH  24  26
ATOM     25  O   UNL     1      39.665 -26.755 -15.027  0.00  0.00    -0.250 OA
ATOM     26  C   UNL     1      39.086 -25.999 -14.260  0.00  0.00    +0.317 C 
ATOM     27  C   UNL     1      39.754 -24.880 -13.521  0.00  0.00    +0.121 C 
ENDBRANCH  24  26
ENDBRANCH  21  24
ENDBRANCH   1  21
TORSDOF 9
ENDMDL
MODEL 4
REMARK VINA RESULT:      -6.3      1.102      2.216
REMARK  Name = 15130
REMARK  9 active torsions:
REMARK  status: ('A' for Active; 'I' for Inactive)
REMARK    1  A    between atoms: C_1  and  C_2
REMARK    2  A    between atoms: C_1  and  C_8
REMARK    3  A    between atoms: C_1  and  C_14
REMARK    4  A    between atoms: C_1  and  C_21
REMARK    5  A    between atoms: C_14  and  C_15
REMARK    6  A    between atoms: C_15  and  N_17
REMARK    7  A    between atoms: C_21  and  C_22
REMARK    8  A    between atoms: C_21  and  O_24
REMARK    9  A    between atoms: O_24  and  C_26
REMARK                            x       y       z     vdW  Elec       q    Type
REMARK                         _______ _______ _______ _____ _____    ______ ____
ROOT
ATOM      1  C   UNL     1      34.691 -24.224 -14.670  0.00  0.00    +0.073 C 
ENDROOT
BRANCH   1   2
ATOM      2  C   UNL     1      35.504 -23.798 -13.406  0.00  0.00    -0.016 C 
ATOM      3  C   UNL     1      36.632 -23.064 -13.603  0.00  0.00    -0.004 C 
ATOM      4  C   UNL     1      35.027 -24.191 -12.192  0.00  0.00    -0.004 C 
ATOM      5  C   UNL     1      37.358 -22.684 -12.475  0.00  0.00    -0.000 C 
ATOM      6  C   UNL     1      35.754 -23.811 -11.064  0.00  0.00    -0.000 C 
ATOM      7  C   UNL     1      36.919 -23.057 -11.205  0.00  0.00    -0.000 C 
ENDBRANCH   1   2
BRANCH   1   8
ATOM      8  C   UNL     1      33.154 -24.055 -14.477  0.00  0.00    -0.016 C 
ATOM      9  C   UNL     1      32.404 -25.187 -14.367  0.00  0.00    -0.004 C 
ATOM     10  C   UNL     1      32.661 -22.785 -14.432  0.00  0.00    -0.004 C 
ATOM     11  C   UNL     1      31.028 -25.035 -14.194  0.00  0.00    -0.000 C 
ATOM     12  C   UNL     1      31.285 -22.633 -14.259  0.00  0.00    -0.000 C 
ATOM     13  C   UNL     1      30.469 -23.758 -14.140  0.00  0.00    -0.000 C 
ENDBRANCH   1   8
BRANCH   1  14
ATOM     14  C   UNL     1      35.131 -25.709 -15.014  0.00  0.00    -0.009 C 
BRANCH  14  15
ATOM     15  C   UNL     1      36.604 -25.973 -15.420  0.00  0.00    -0.058 C 
ATOM     16  C   UNL     1      36.753 -27.386 -15.993  0.00  0.00    -0.023 C 
BRANCH  15  17
ATOM     17  N   UNL     1      37.508 -25.844 -14.276  0.00  0.00    +0.385 N 
ATOM     18  C   UNL     1      38.900 -25.909 -14.717  0.00  0.00    -0.101 C 
ATOM     19  C   UNL     1      37.233 -26.889 -13.290  0.00  0.00    -0.101 C 
ATOM     20  H   UNL     1      37.351 -24.937 -13.837  0.00  0.00    -0.080 HD
ENDBRANCH  15  17
ENDBRANCH  14  15
ENDBRANCH   1  14
BRANCH   1  21
ATOM     21  C   UNL     1      35.100 -23.342 -15.942  0.00  0.00    +0.176 C 
BRANCH  21  22
ATOM     22  C   UNL     1      36.023 -22.133 -15.673  0.00  0.00    +0.044 C 
ATOM     23  C   UNL     1      37.091 -21.978 -16.753  0.00  0.00    +0.004 C 
ENDBRANCH  21  22
BRANCH  21  24
ATOM     24  O   UNL     1      33.931 -22.882 -16.631  0.00  0.00    -0.452 OA
BRANCH  24  26
ATOM     25  O   UNL     1      33.663 -24.340 -18.403  0.00  0.00    -0.250 OA
ATOM     26  C   UNL     1      33.857 -23.220 -17.949  0.00  0.00    +0.317 C 
ATOM     27  C   UNL     1      34.055 -21.997 -18.792  0.00  0.00    +0.121 C 
ENDBRANCH  24  26
ENDBRANCH  21  24
ENDBRANCH   1  21
TORSDOF 9
ENDMDL
MODEL 5
REMARK VINA RESULT:      -6.1      1.547      4.836
REMARK  Name = 15130
REMARK  9 active torsions:
REMARK  status: ('A' for Active; 'I' for Inactive)
REMARK    1  A    between atoms: C_1  and  C_2
REMARK    2  A    between atoms: C_1  and  C_8
REMARK    3  A    between atoms: C_1  and  C_14
REMARK    4  A    between atoms: C_1  and  C_21
REMARK    5  A    between atoms: C_14  and  C_15
REMARK    6  A    between atoms: C_15  and  N_17
REMARK    7  A    between atoms: C_21  and  C_22
REMARK    8  A    between atoms: C_21  and  O_24
REMARK    9  A    between atoms: O_24  and  C_26
REMARK                            x       y       z     vdW  Elec       q    Type
REMARK                         _______ _______ _______ _____ _____    ______ ____
ROOT
ATOM      1  C   UNL     1      34.978 -23.898 -14.494  0.00  0.00    +0.073 C 
ENDROOT
BRANCH   1   2
ATOM      2  C   UNL     1      33.419 -23.911 -14.420  0.00  0.00    -0.016 C 
ATOM      3  C   UNL     1      32.766 -22.759 -14.734  0.00  0.00    -0.004 C 
ATOM      4  C   UNL     1      32.818 -25.074 -14.046  0.00  0.00    -0.004 C 
ATOM      5  C   UNL     1      31.373 -22.769 -14.667  0.00  0.00    -0.000 C 
ATOM      6  C   UNL     1      31.424 -25.084 -13.979  0.00  0.00    -0.000 C 
ATOM      7  C   UNL     1      30.702 -23.932 -14.290  0.00  0.00    -0.000 C 
ENDBRANCH   1   2
BRANCH   1   8
ATOM      8  C   UNL     1      35.513 -23.055 -15.692  0.00  0.00    -0.016 C 
ATOM      9  C   UNL     1      34.787 -23.067 -16.845  0.00  0.00    -0.004 C 
ATOM     10  C   UNL     1      36.671 -22.361 -15.506  0.00  0.00    -0.004 C 
ATOM     11  C   UNL     1      35.266 -22.313 -17.916  0.00  0.00    -0.000 C 
ATOM     12  C   UNL     1      37.149 -21.606 -16.578  0.00  0.00    -0.000 C 
ATOM     13  C   UNL     1      36.446 -21.583 -17.782  0.00  0.00    -0.000 C 
ENDBRANCH   1   8
BRANCH   1  14
ATOM     14  C   UNL     1      35.444 -25.415 -14.524  0.00  0.00    -0.009 C 
BRANCH  14  15
ATOM     15  C   UNL     1      36.709 -25.788 -15.339  0.00  0.00    -0.058 C 
ATOM     16  C   UNL     1      36.579 -27.208 -15.901  0.00  0.00    -0.023 C 
BRANCH  15  17
ATOM     17  N   UNL     1      37.917 -25.731 -14.514  0.00  0.00    +0.385 N 
ATOM     18  C   UNL     1      39.026 -25.159 -15.275  0.00  0.00    -0.101 C 
ATOM     19  C   UNL     1      38.263 -27.065 -14.026  0.00  0.00    -0.101 C 
ATOM     20  H   UNL     1      37.733 -25.130 -13.710  0.00  0.00    -0.080 HD
ENDBRANCH  15  17
ENDBRANCH  14  15
ENDBRANCH   1  14
BRANCH   1  21
ATOM     21  C   UNL     1      35.615 -23.272 -13.165  0.00  0.00    +0.176 C 
BRANCH  21  22
ATOM     22  C   UNL     1      37.130 -23.492 -12.959  0.00  0.00    +0.044 C 
ATOM     23  C   UNL     1      37.732 -22.465 -12.004  0.00  0.00    +0.004 C 
ENDBRANCH  21  22
BRANCH  21  24
ATOM     24  O   UNL     1      34.921 -23.745 -12.005  0.00  0.00    -0.452 OA
BRANCH  24  26
ATOM     25  O   UNL     1      36.186 -25.649 -11.667  0.00  0.00    -0.250 OA
ATOM     26  C   UNL     1      35.595 -24.661 -11.253  0.00  0.00    +0.317 C 
ATOM     27  C   UNL     1      35.509 -24.281  -9.806  0.00  0.00    +0.121 C 
ENDBRANCH  24  26
ENDBRANCH  21  24
ENDBRANCH   1  21
TORSDOF 9
ENDMDL
MODEL 6
REMARK VINA RESULT:      -5.9      1.802      4.812
REMARK  Name = 15130
REMARK  9 active torsions:
REMARK  status: ('A' for Active; 'I' for Inactive)
REMARK    1  A    between atoms: C_1  and  C_2
REMARK    2  A    between atoms: C_1  and  C_8
REMARK    3  A    between atoms: C_1  and  C_14
REMARK    4  A    between atoms: C_1  and  C_21
REMARK    5  A    between atoms: C_14  and  C_15
REMARK    6  A    between atoms: C_15  and  N_17
REMARK    7  A    between atoms: C_21  and  C_22
REMARK    8  A    between atoms: C_21  and  O_24
REMARK    9  A    between atoms: O_24  and  C_26
REMARK                            x       y       z     vdW  Elec       q    Type
REMARK                         _______ _______ _______ _____ _____    ______ ____
ROOT
ATOM      1  C   UNL     1      35.555 -23.662 -15.187  0.00  0.00    +0.073 C 
ENDROOT
BRANCH   1   2
ATOM      2  C   UNL     1      36.452 -24.939 -15.120  0.00  0.00    -0.016 C 
ATOM      3  C   UNL     1      35.845 -26.142 -15.312  0.00  0.00    -0.004 C 
ATOM      4  C   UNL     1      37.779 -24.761 -14.874  0.00  0.00    -0.004 C 
ATOM      5  C   UNL     1      36.646 -27.283 -15.252  0.00  0.00    -0.000 C 
ATOM      6  C   UNL     1      38.579 -25.903 -14.814  0.00  0.00    -0.000 C 
ATOM      7  C   UNL     1      38.012 -27.163 -15.003  0.00  0.00    -0.000 C 
ENDBRANCH   1   2
BRANCH   1   8
ATOM      8  C   UNL     1      35.947 -22.718 -16.364  0.00  0.00    -0.016 C 
ATOM      9  C   UNL     1      36.976 -21.849 -16.160  0.00  0.00    -0.004 C 
ATOM     10  C   UNL     1      35.234 -22.825 -17.521  0.00  0.00    -0.004 C 
ATOM     11  C   UNL     1      37.326 -21.005 -17.214  0.00  0.00    -0.000 C 
ATOM     12  C   UNL     1      35.584 -21.980 -18.575  0.00  0.00    -0.000 C 
ATOM     13  C   UNL     1      36.630 -21.070 -18.421  0.00  0.00    -0.000 C 
ENDBRANCH   1   8
BRANCH   1  14
ATOM     14  C   UNL     1      35.640 -22.972 -13.761  0.00  0.00    -0.009 C 
BRANCH  14  15
ATOM     15  C   UNL     1      36.302 -23.751 -12.596  0.00  0.00    -0.058 C 
ATOM     16  C   UNL     1      35.231 -24.334 -11.669  0.00  0.00    -0.023 C 
BRANCH  15  17
ATOM     17  N   UNL     1      37.176 -22.887 -11.800  0.00  0.00    +0.385 N 
ATOM     18  C   UNL     1      38.555 -23.367 -11.855  0.00  0.00    -0.101 C 
ATOM     19  C   UNL     1      36.709 -22.828 -10.415  0.00  0.00    -0.101 C 
ATOM     20  H   UNL     1      37.146 -21.945 -12.191  0.00  0.00    -0.080 HD
ENDBRANCH  15  17
ENDBRANCH  14  15
ENDBRANCH   1  14
BRANCH   1  21
ATOM     21  C   UNL     1      34.015 -24.048 -15.394  0.00  0.00    +0.176 C 
BRANCH  21  22
ATOM     22  C   UNL     1      33.045 -22.880 -15.676  0.00  0.00    +0.044 C 
ATOM     23  C   UNL     1      32.171 -23.144 -16.899  0.00  0.00    +0.004 C 
ENDBRANCH  21  22
BRANCH  21  24
ATOM     24  O   UNL     1      33.527 -24.788 -14.269  0.00  0.00    -0.452 OA
BRANCH  24  26
ATOM     25  O   UNL     1      32.207 -23.355 -13.027  0.00  0.00    -0.250 OA
ATOM     26  C   UNL     1      32.354 -24.340 -13.738  0.00  0.00    +0.317 C 
ATOM     27  C   UNL     1      31.237 -25.246 -14.157  0.00  0.00    +0.121 C 
ENDBRANCH  24  26
ENDBRANCH  21  24
ENDBRANCH   1  21
TORSDOF 9
ENDMDL
MODEL 7
REMARK VINA RESULT:      -5.1      1.978      5.923
REMARK  Name = 15130
REMARK  9 active torsions:
REMARK  status: ('A' for Active; 'I' for Inactive)
REMARK    1  A    between atoms: C_1  and  C_2
REMARK    2  A    between atoms: C_1  and  C_8
REMARK    3  A    between atoms: C_1  and  C_14
REMARK    4  A    between atoms: C_1  and  C_21
REMARK    5  A    between atoms: C_14  and  C_15
REMARK    6  A    between atoms: C_15  and  N_17
REMARK    7  A    between atoms: C_21  and  C_22
REMARK    8  A    between atoms: C_21  and  O_24
REMARK    9  A    between atoms: O_24  and  C_26
REMARK                            x       y       z     vdW  Elec       q    Type
REMARK                         _______ _______ _______ _____ _____    ______ ____
ROOT
ATOM      1  C   UNL     1      35.907 -24.061 -14.849  0.00  0.00    +0.073 C 
ENDROOT
BRANCH   1   2
ATOM      2  C   UNL     1      36.195 -22.992 -15.950  0.00  0.00    -0.016 C 
ATOM      3  C   UNL     1      37.248 -22.153 -15.749  0.00  0.00    -0.004 C 
ATOM      4  C   UNL     1      35.373 -22.972 -17.035  0.00  0.00    -0.004 C 
ATOM      5  C   UNL     1      37.505 -21.197 -16.732  0.00  0.00    -0.000 C 
ATOM      6  C   UNL     1      35.631 -22.015 -18.018  0.00  0.00    -0.000 C 
ATOM      7  C   UNL     1      36.698 -21.129 -17.867  0.00  0.00    -0.000 C 
ENDBRANCH   1   2
BRANCH   1   8
ATOM      8  C   UNL     1      36.922 -25.244 -14.886  0.00  0.00    -0.016 C 
ATOM      9  C   UNL     1      36.420 -26.501 -15.051  0.00  0.00    -0.004 C 
ATOM     10  C   UNL     1      38.244 -24.944 -14.749  0.00  0.00    -0.004 C 
ATOM     11  C   UNL     1      37.328 -27.558 -15.083  0.00  0.00    -0.000 C 
ATOM     12  C   UNL     1      39.152 -26.003 -14.782  0.00  0.00    -0.000 C 
ATOM     13  C   UNL     1      38.694 -27.310 -14.949  0.00  0.00    -0.000 C 
ENDBRANCH   1   8
BRANCH   1  14
ATOM     14  C   UNL     1      34.397 -24.511 -15.036  0.00  0.00    -0.009 C 
BRANCH  14  15
ATOM     15  C   UNL     1      33.309 -23.845 -14.154  0.00  0.00    -0.058 C 
ATOM     16  C   UNL     1      32.332 -24.902 -13.627  0.00  0.00    -0.023 C 
BRANCH  15  17
ATOM     17  N   UNL     1      32.544 -22.848 -14.906  0.00  0.00    +0.385 N 
ATOM     18  C   UNL     1      31.349 -22.456 -14.161  0.00  0.00    -0.101 C 
ATOM     19  C   UNL     1      32.179 -23.373 -16.221  0.00  0.00    -0.101 C 
ATOM     20  H   UNL     1      33.128 -22.022 -15.038  0.00  0.00    -0.080 HD
ENDBRANCH  15  17
ENDBRANCH  14  15
ENDBRANCH   1  14
BRANCH   1  21
ATOM     21  C   UNL     1      35.994 -23.420 -13.385  0.00  0.00    +0.176 C 
BRANCH  21  22
ATOM     22  C   UNL     1      37.398 -23.357 -12.743  0.00  0.00    +0.044 C 
ATOM     23  C   UNL     1      37.550 -22.151 -11.820  0.00  0.00    +0.004 C 
ENDBRANCH  21  22
BRANCH  21  24
ATOM     24  O   UNL     1      35.110 -24.100 -12.485  0.00  0.00    -0.452 OA
BRANCH  24  26
ATOM     25  O   UNL     1      36.437 -25.834 -11.730  0.00  0.00    -0.250 OA
ATOM     26  C   UNL     1      35.717 -24.864 -11.534  0.00  0.00    +0.317 C 
ATOM     27  C   UNL     1      35.371 -24.338 -10.174  0.00  0.00    +0.121 C 
ENDBRANCH  24  26
ENDBRANCH  21  24
ENDBRANCH   1  21
TORSDOF 9
ENDMDL
MODEL 8
REMARK VINA RESULT:      -3.8     14.715     17.419
REMARK  Name = 15130
REMARK  9 active torsions:
REMARK  status: ('A' for Active; 'I' for Inactive)
REMARK    1  A    between atoms: C_1  and  C_2
REMARK    2  A    between atoms: C_1  and  C_8
REMARK    3  A    between atoms: C_1  and  C_14
REMARK    4  A    between atoms: C_1  and  C_21
REMARK    5  A    between atoms: C_14  and  C_15
REMARK    6  A    between atoms: C_15  and  N_17
REMARK    7  A    between atoms: C_21  and  C_22
REMARK    8  A    between atoms: C_21  and  O_24
REMARK    9  A    between atoms: O_24  and  C_26
REMARK                            x       y       z     vdW  Elec       q    Type
REMARK                         _______ _______ _______ _____ _____    ______ ____
ROOT
ATOM      1  C   UNL     1      32.391  -9.293 -23.013  0.00  0.00    +0.073 C 
ENDROOT
BRANCH   1   2
ATOM      2  C   UNL     1      32.111  -9.732 -21.541  0.00  0.00    -0.016 C 
ATOM      3  C   UNL     1      31.358 -10.849 -21.352  0.00  0.00    -0.004 C 
ATOM      4  C   UNL     1      32.639  -8.966 -20.547  0.00  0.00    -0.004 C 
ATOM      5  C   UNL     1      31.107 -11.241 -20.037  0.00  0.00    -0.000 C 
ATOM      6  C   UNL     1      32.387  -9.358 -19.232  0.00  0.00    -0.000 C 
ATOM      7  C   UNL     1      31.622 -10.496 -18.977  0.00  0.00    -0.000 C 
ENDBRANCH   1   2
BRANCH   1   8
ATOM      8  C   UNL     1      31.689  -7.951 -23.382  0.00  0.00    -0.016 C 
ATOM      9  C   UNL     1      31.432  -7.715 -24.699  0.00  0.00    -0.004 C 
ATOM     10  C   UNL     1      31.378  -7.103 -22.362  0.00  0.00    -0.004 C 
ATOM     11  C   UNL     1      30.804  -6.514 -25.027  0.00  0.00    -0.000 C 
ATOM     12  C   UNL     1      30.750  -5.901 -22.691  0.00  0.00    -0.000 C 
ATOM     13  C   UNL     1      30.463  -5.607 -24.024  0.00  0.00    -0.000 C 
ENDBRANCH   1   8
BRANCH   1  14
ATOM     14  C   UNL     1      31.967 -10.511 -23.939  0.00  0.00    -0.009 C 
BRANCH  14  15
ATOM     15  C   UNL     1      32.992 -11.645 -24.192  0.00  0.00    -0.058 C 
ATOM     16  C   UNL     1      32.975 -12.059 -25.667  0.00  0.00    -0.023 C 
BRANCH  15  17
ATOM     17  N   UNL     1      32.696 -12.828 -23.381  0.00  0.00    +0.385 N 
ATOM     18  C   UNL     1      33.827 -13.146 -22.512  0.00  0.00    -0.101 C 
ATOM     19  C   UNL     1      32.373 -13.966 -24.240  0.00  0.00    -0.101 C 
ATOM     20  H   UNL     1      31.885 -12.626 -22.795  0.00  0.00    -0.080 HD
ENDBRANCH  15  17
ENDBRANCH  14  15
ENDBRANCH   1  14
BRANCH   1  21
ATOM     21  C   UNL     1      33.959  -9.082 -23.264  0.00  0.00    +0.176 C 
BRANCH  21  22
ATOM     22  C   UNL     1      34.553  -7.732 -22.803  0.00  0.00    +0.044 C 
ATOM     23  C   UNL     1      34.839  -6.802 -23.978  0.00  0.00    +0.004 C 
ENDBRANCH  21  22
BRANCH  21  24
ATOM     24  O   UNL     1      34.277  -9.273 -24.647  0.00  0.00    -0.452 OA
BRANCH  24  26
ATOM     25  O   UNL     1      36.236 -10.346 -24.056  0.00  0.00    -0.250 OA
ATOM     26  C   UNL     1      35.448  -9.927 -24.893  0.00  0.00    +0.317 C 
ATOM     27  C   UNL     1      35.643 -10.064 -26.372  0.00  0.00    +0.121 C 
ENDBRANCH  24  26
ENDBRANCH  21  24
ENDBRANCH   1  21
TORSDOF 9
ENDMDL
MODEL 9
REMARK VINA RESULT:      -3.7     12.250     15.405
REMARK  Name = 15130
REMARK  9 active torsions:
REMARK  status: ('A' for Active; 'I' for Inactive)
REMARK    1  A    between atoms: C_1  and  C_2
REMARK    2  A    between atoms: C_1  and  C_8
REMARK    3  A    between atoms: C_1  and  C_14
REMARK    4  A    between atoms: C_1  and  C_21
REMARK    5  A    between atoms: C_14  and  C_15
REMARK    6  A    between atoms: C_15  and  N_17
REMARK    7  A    between atoms: C_21  and  C_22
REMARK    8  A    between atoms: C_21  and  O_24
REMARK    9  A    between atoms: O_24  and  C_26
REMARK                            x       y       z     vdW  Elec       q    Type
REMARK                         _______ _______ _______ _____ _____    ______ ____
ROOT
ATOM      1  C   UNL     1      33.494 -13.016 -23.278  0.00  0.00    +0.073 C 
ENDROOT
BRANCH   1   2
ATOM      2  C   UNL     1      32.388 -12.355 -22.395  0.00  0.00    -0.016 C 
ATOM      3  C   UNL     1      32.592 -12.329 -21.050  0.00  0.00    -0.004 C 
ATOM      4  C   UNL     1      31.295 -11.851 -23.032  0.00  0.00    -0.004 C 
ATOM      5  C   UNL     1      31.605 -11.739 -20.261  0.00  0.00    -0.000 C 
ATOM      6  C   UNL     1      30.308 -11.261 -22.242  0.00  0.00    -0.000 C 
ATOM      7  C   UNL     1      30.463 -11.205 -20.857  0.00  0.00    -0.000 C 
ENDBRANCH   1   2
BRANCH   1   8
ATOM      8  C   UNL     1      34.067 -14.319 -22.642  0.00  0.00    -0.016 C 
ATOM      9  C   UNL     1      34.827 -15.126 -23.435  0.00  0.00    -0.004 C 
ATOM     10  C   UNL     1      33.772 -14.564 -21.334  0.00  0.00    -0.004 C 
ATOM     11  C   UNL     1      35.339 -16.291 -22.865  0.00  0.00    -0.000 C 
ATOM     12  C   UNL     1      34.285 -15.730 -20.765  0.00  0.00    -0.000 C 
ATOM     13  C   UNL     1      35.069 -16.593 -21.531  0.00  0.00    -0.000 C 
ENDBRANCH   1   8
BRANCH   1  14
ATOM     14  C   UNL     1      34.590 -11.900 -23.544  0.00  0.00    -0.009 C 
BRANCH  14  15
ATOM     15  C   UNL     1      34.195 -10.653 -24.375  0.00  0.00    -0.058 C 
ATOM     16  C   UNL     1      35.299 -10.313 -25.382  0.00  0.00    -0.023 C 
BRANCH  15  17
ATOM     17  N   UNL     1      33.978  -9.484 -23.521  0.00  0.00    +0.385 N 
ATOM     18  C   UNL     1      32.619  -8.974 -23.690  0.00  0.00    -0.101 C 
ATOM     19  C   UNL     1      34.957  -8.442 -23.827  0.00  0.00    -0.101 C 
ATOM     20  H   UNL     1      34.099  -9.765 -22.548  0.00  0.00    -0.080 HD
ENDBRANCH  15  17
ENDBRANCH  14  15
ENDBRANCH   1  14
BRANCH   1  21
ATOM     21  C   UNL     1      32.920 -13.416 -24.718  0.00  0.00    +0.176 C 
BRANCH  21  22
ATOM     22  C   UNL     1      32.347 -14.844 -24.858  0.00  0.00    +0.044 C 
ATOM     23  C   UNL     1      33.171 -15.700 -25.815  0.00  0.00    +0.004 C 
ENDBRANCH  21  22
BRANCH  21  24
ATOM     24  O   UNL     1      33.918 -13.222 -25.728  0.00  0.00    -0.452 OA
BRANCH  24  26
ATOM     25  O   UNL     1      33.978 -13.569 -28.011  0.00  0.00    -0.250 OA
ATOM     26  C   UNL     1      33.447 -13.122 -27.003  0.00  0.00    +0.317 C 
ATOM     27  C   UNL     1      32.153 -12.367 -27.001  0.00  0.00    +0.121 C 
ENDBRANCH  24  26
ENDBRANCH  21  24
ENDBRANCH   1  21
TORSDOF 9
ENDMDL
