MODEL 1
REMARK VINA RESULT:     -10.3      0.000      0.000
REMARK  Name = 24808495
REMARK  2 active torsions:
REMARK  status: ('A' for Active; 'I' for Inactive)
REMARK    1  A    between atoms: C_2  and  C_16
REMARK    2  A    between atoms: C_4  and  C_18
REMARK                            x       y       z     vdW  Elec       q    Type
REMARK                         _______ _______ _______ _____ _____    ______ ____
ROOT
ATOM      1  N   UNL     1      34.870 -24.005 -16.518  0.00  0.00    -0.401 NA
ATOM      2  C   UNL     1      34.650 -24.782 -15.434  0.00  0.00    +0.184 C 
ATOM      3  C   UNL     1      33.493 -24.744 -14.674  0.00  0.00    +0.033 C 
ATOM      4  C   UNL     1      33.881 -23.147 -16.852  0.00  0.00    +0.114 C 
ATOM      5  C   UNL     1      32.498 -23.848 -15.049  0.00  0.00    -0.016 C 
ATOM      6  C   UNL     1      32.687 -23.031 -16.158  0.00  0.00    +0.085 C 
ENDROOT
BRANCH   2  16
ATOM      7  O   UNL     1      36.030 -26.543 -15.938  0.00  0.00    -0.267 OA
ATOM      8  N   UNL     1      36.337 -25.570 -13.832  0.00  0.00    -0.274 N 
ATOM      9  C   UNL     1      37.200 -23.710 -12.407  0.00  0.00    +0.018 C 
ATOM     10  C   UNL     1      38.385 -24.632 -12.027  0.00  0.00    +0.003 C 
ATOM     11  C   UNL     1      35.980 -24.567 -12.818  0.00  0.00    +0.094 C 
ATOM     12  C   UNL     1      38.679 -25.691 -13.091  0.00  0.00    +0.022 C 
ATOM     13  C   UNL     1      37.420 -26.473 -13.451  0.00  0.00    +0.094 C 
ATOM     14  C   UNL     1      37.594 -22.767 -13.560  0.00  0.00    +0.002 C 
ATOM     15  C   UNL     1      36.824 -22.849 -11.188  0.00  0.00    +0.002 C 
ATOM     16  C   UNL     1      35.734 -25.708 -15.085  0.00  0.00    +0.279 C 
ENDBRANCH   2  16
BRANCH   4  18
ATOM     17  F   UNL     1      36.987 -20.985 -19.842  0.00  0.00    -0.205 F 
ATOM     18  C   UNL     1      34.147 -22.331 -18.012  0.00  0.00    +0.028 C 
ATOM     19  C   UNL     1      35.462 -22.044 -18.377  0.00  0.00    +0.032 C 
ATOM     20  C   UNL     1      33.088 -21.830 -18.771  0.00  0.00    +0.002 C 
ATOM     21  C   UNL     1      34.660 -20.755 -20.257  0.00  0.00    +0.006 C 
ATOM     22  C   UNL     1      35.720 -21.256 -19.499  0.00  0.00    +0.136 C 
ATOM     23  C   UNL     1      33.345 -21.042 -19.893  0.00  0.00    -0.002 C 
ATOM     24  C   UNL     1      34.932 -19.914 -21.458  0.00  0.00    +0.033 C 
ENDBRANCH   4  18
TORSDOF 2
ENDMDL
MODEL 2
REMARK VINA RESULT:     -10.2     10.605     15.259
REMARK  Name = 24808495
REMARK  2 active torsions:
REMARK  status: ('A' for Active; 'I' for Inactive)
REMARK    1  A    between atoms: C_2  and  C_16
REMARK    2  A    between atoms: C_4  and  C_18
REMARK                            x       y       z     vdW  Elec       q    Type
REMARK                         _______ _______ _______ _____ _____    ______ ____
ROOT
ATOM      1  N   UNL     1      33.857 -12.400 -23.473  0.00  0.00    -0.401 NA
ATOM      2  C   UNL     1      33.319 -11.165 -23.361  0.00  0.00    +0.184 C 
ATOM      3  C   UNL     1      32.184 -10.877 -22.620  0.00  0.00    +0.033 C 
ATOM      4  C   UNL     1      33.224 -13.393 -22.810  0.00  0.00    +0.114 C 
ATOM      5  C   UNL     1      31.560 -11.925 -21.952  0.00  0.00    -0.016 C 
ATOM      6  C   UNL     1      32.084 -13.210 -22.043  0.00  0.00    +0.085 C 
ENDROOT
BRANCH   2  16
ATOM      7  O   UNL     1      34.629 -10.441 -25.098  0.00  0.00    -0.267 OA
ATOM      8  N   UNL     1      33.937  -8.798 -23.582  0.00  0.00    -0.274 N 
ATOM      9  C   UNL     1      32.165  -7.290 -22.678  0.00  0.00    +0.018 C 
ATOM     10  C   UNL     1      32.843  -6.131 -23.449  0.00  0.00    +0.003 C 
ATOM     11  C   UNL     1      33.203  -8.395 -22.373  0.00  0.00    +0.094 C 
ATOM     12  C   UNL     1      33.638  -6.610 -24.664  0.00  0.00    +0.022 C 
ATOM     13  C   UNL     1      34.620  -7.711 -24.279  0.00  0.00    +0.094 C 
ATOM     14  C   UNL     1      30.996  -7.874 -23.494  0.00  0.00    +0.002 C 
ATOM     15  C   UNL     1      31.602  -6.749 -21.351  0.00  0.00    +0.002 C 
ATOM     16  C   UNL     1      34.018 -10.098 -24.087  0.00  0.00    +0.279 C 
ENDBRANCH   2  16
BRANCH   4  18
ATOM     17  F   UNL     1      34.813 -17.008 -25.578  0.00  0.00    -0.205 F 
ATOM     18  C   UNL     1      33.823 -14.698 -22.949  0.00  0.00    +0.028 C 
ATOM     19  C   UNL     1      34.034 -15.237 -24.218  0.00  0.00    +0.032 C 
ATOM     20  C   UNL     1      34.192 -15.422 -21.815  0.00  0.00    +0.002 C 
ATOM     21  C   UNL     1      34.982 -17.222 -23.219  0.00  0.00    +0.006 C 
ATOM     22  C   UNL     1      34.613 -16.499 -24.354  0.00  0.00    +0.136 C 
ATOM     23  C   UNL     1      34.771 -16.684 -21.950  0.00  0.00    -0.002 C 
ATOM     24  C   UNL     1      35.603 -18.570 -23.360  0.00  0.00    +0.033 C 
ENDBRANCH   4  18
TORSDOF 2
ENDMDL
MODEL 3
REMARK VINA RESULT:      -9.9     10.997     14.687
REMARK  Name = 24808495
REMARK  2 active torsions:
REMARK  status: ('A' for Active; 'I' for Inactive)
REMARK    1  A    between atoms: C_2  and  C_16
REMARK    2  A    between atoms: C_4  and  C_18
REMARK                            x       y       z     vdW  Elec       q    Type
REMARK                         _______ _______ _______ _____ _____    ______ ____
ROOT
ATOM      1  N   UNL     1      32.395 -10.645 -22.755  0.00  0.00    -0.401 NA
ATOM      2  C   UNL     1      32.506 -11.968 -22.497  0.00  0.00    +0.184 C 
ATOM      3  C   UNL     1      32.068 -12.569 -21.328  0.00  0.00    +0.033 C 
ATOM      4  C   UNL     1      31.819  -9.892 -21.792  0.00  0.00    +0.114 C 
ATOM      5  C   UNL     1      31.481 -11.761 -20.361  0.00  0.00    -0.016 C 
ATOM      6  C   UNL     1      31.349 -10.396 -20.589  0.00  0.00    +0.085 C 
ENDROOT
BRANCH   2  16
ATOM      7  O   UNL     1      33.596 -12.147 -24.506  0.00  0.00    -0.267 OA
ATOM      8  N   UNL     1      33.158 -14.159 -23.394  0.00  0.00    -0.274 N 
ATOM      9  C   UNL     1      33.674 -15.788 -21.574  0.00  0.00    +0.018 C 
ATOM     10  C   UNL     1      34.379 -16.663 -22.639  0.00  0.00    +0.003 C 
ATOM     11  C   UNL     1      32.605 -14.898 -22.249  0.00  0.00    +0.094 C 
ATOM     12  C   UNL     1      34.886 -15.853 -23.833  0.00  0.00    +0.022 C 
ATOM     13  C   UNL     1      33.776 -14.991 -24.424  0.00  0.00    +0.094 C 
ATOM     14  C   UNL     1      34.698 -14.909 -20.830  0.00  0.00    +0.002 C 
ATOM     15  C   UNL     1      32.990 -16.705 -20.544  0.00  0.00    +0.002 C 
ATOM     16  C   UNL     1      33.133 -12.771 -23.552  0.00  0.00    +0.279 C 
ENDBRANCH   2  16
BRANCH   4  18
ATOM     17  F   UNL     1      30.760  -6.330 -24.867  0.00  0.00    -0.205 F 
ATOM     18  C   UNL     1      31.716  -8.485 -22.098  0.00  0.00    +0.028 C 
ATOM     19  C   UNL     1      31.281  -8.075 -23.358  0.00  0.00    +0.032 C 
ATOM     20  C   UNL     1      32.051  -7.534 -21.133  0.00  0.00    +0.002 C 
ATOM     21  C   UNL     1      31.515  -5.766 -22.688  0.00  0.00    +0.006 C 
ATOM     22  C   UNL     1      31.180  -6.715 -23.654  0.00  0.00    +0.136 C 
ATOM     23  C   UNL     1      31.950  -6.176 -21.428  0.00  0.00    -0.002 C 
ATOM     24  C   UNL     1      31.407  -4.312 -23.000  0.00  0.00    +0.033 C 
ENDBRANCH   4  18
TORSDOF 2
ENDMDL
MODEL 4
REMARK VINA RESULT:      -9.7      9.697     13.222
REMARK  Name = 24808495
REMARK  2 active torsions:
REMARK  status: ('A' for Active; 'I' for Inactive)
REMARK    1  A    between atoms: C_2  and  C_16
REMARK    2  A    between atoms: C_4  and  C_18
REMARK                            x       y       z     vdW  Elec       q    Type
REMARK                         _______ _______ _______ _____ _____    ______ ____
ROOT
ATOM      1  N   UNL     1      34.070 -13.836 -24.706  0.00  0.00    -0.401 NA
ATOM      2  C   UNL     1      33.796 -15.077 -25.165  0.00  0.00    +0.184 C 
ATOM      3  C   UNL     1      33.084 -15.335 -26.325  0.00  0.00    +0.033 C 
ATOM      4  C   UNL     1      33.606 -12.805 -25.446  0.00  0.00    +0.114 C 
ATOM      5  C   UNL     1      32.622 -14.249 -27.061  0.00  0.00    -0.016 C 
ATOM      6  C   UNL     1      32.884 -12.956 -26.620  0.00  0.00    +0.085 C 
ENDROOT
BRANCH   2  16
ATOM      7  O   UNL     1      35.082 -16.959 -24.910  0.00  0.00    -0.267 OA
ATOM      8  N   UNL     1      33.883 -16.272 -23.022  0.00  0.00    -0.274 N 
ATOM      9  C   UNL     1      33.585 -14.724 -21.086  0.00  0.00    +0.018 C 
ATOM     10  C   UNL     1      34.148 -15.846 -20.180  0.00  0.00    +0.003 C 
ATOM     11  C   UNL     1      32.958 -15.342 -22.357  0.00  0.00    +0.094 C 
ATOM     12  C   UNL     1      35.059 -16.816 -20.932  0.00  0.00    +0.022 C 
ATOM     13  C   UNL     1      34.372 -17.361 -22.179  0.00  0.00    +0.094 C 
ATOM     14  C   UNL     1      34.697 -13.731 -21.475  0.00  0.00    +0.002 C 
ATOM     15  C   UNL     1      32.501 -13.952 -20.313  0.00  0.00    +0.002 C 
ATOM     16  C   UNL     1      34.308 -16.185 -24.350  0.00  0.00    +0.279 C 
ENDBRANCH   2  16
BRANCH   4  18
ATOM     17  F   UNL     1      32.772  -9.216 -22.335  0.00  0.00    -0.205 F 
ATOM     18  C   UNL     1      33.915 -11.494 -24.929  0.00  0.00    +0.028 C 
ATOM     19  C   UNL     1      33.182 -10.974 -23.863  0.00  0.00    +0.032 C 
ATOM     20  C   UNL     1      34.948 -10.745 -25.495  0.00  0.00    +0.002 C 
ATOM     21  C   UNL     1      34.514  -8.959 -23.928  0.00  0.00    +0.006 C 
ATOM     22  C   UNL     1      33.481  -9.707 -23.361  0.00  0.00    +0.136 C 
ATOM     23  C   UNL     1      35.247  -9.479 -24.995  0.00  0.00    -0.002 C 
ATOM     24  C   UNL     1      34.837  -7.605 -23.394  0.00  0.00    +0.033 C 
ENDBRANCH   4  18
TORSDOF 2
ENDMDL
MODEL 5
REMARK VINA RESULT:      -9.6      1.791      2.590
REMARK  Name = 24808495
REMARK  2 active torsions:
REMARK  status: ('A' for Active; 'I' for Inactive)
REMARK    1  A    between atoms: C_2  and  C_16
REMARK    2  A    between atoms: C_4  and  C_18
REMARK                            x       y       z     vdW  Elec       q    Type
REMARK                         _______ _______ _______ _____ _____    ______ ____
ROOT
ATOM      1  N   UNL     1      34.737 -23.635 -14.718  0.00  0.00    -0.401 NA
ATOM      2  C   UNL     1      34.220 -24.184 -13.596  0.00  0.00    +0.184 C 
ATOM      3  C   UNL     1      32.877 -24.473 -13.421  0.00  0.00    +0.033 C 
ATOM      4  C   UNL     1      33.862 -23.362 -15.711  0.00  0.00    +0.114 C 
ATOM      5  C   UNL     1      32.007 -24.178 -14.465  0.00  0.00    -0.016 C 
ATOM      6  C   UNL     1      32.500 -23.612 -15.636  0.00  0.00    +0.085 C 
ENDROOT
BRANCH   2  16
ATOM      7  O   UNL     1      34.713 -24.894 -11.471  0.00  0.00    -0.267 OA
ATOM      8  N   UNL     1      36.538 -24.255 -12.788  0.00  0.00    -0.274 N 
ATOM      9  C   UNL     1      38.149 -24.725 -14.637  0.00  0.00    +0.018 C 
ATOM     10  C   UNL     1      39.198 -25.074 -13.554  0.00  0.00    +0.003 C 
ATOM     11  C   UNL     1      37.095 -23.755 -14.054  0.00  0.00    +0.094 C 
ATOM     12  C   UNL     1      38.565 -25.535 -12.241  0.00  0.00    +0.022 C 
ATOM     13  C   UNL     1      37.526 -24.533 -11.748  0.00  0.00    +0.094 C 
ATOM     14  C   UNL     1      37.460 -26.002 -15.157  0.00  0.00    +0.002 C 
ATOM     15  C   UNL     1      38.858 -24.045 -15.823  0.00  0.00    +0.002 C 
ATOM     16  C   UNL     1      35.184 -24.474 -12.528  0.00  0.00    +0.279 C 
ENDBRANCH   2  16
BRANCH   4  18
ATOM     17  F   UNL     1      33.467 -21.829 -20.266  0.00  0.00    -0.205 F 
ATOM     18  C   UNL     1      34.445 -22.777 -16.894  0.00  0.00    +0.028 C 
ATOM     19  C   UNL     1      33.664 -22.581 -18.032  0.00  0.00    +0.032 C 
ATOM     20  C   UNL     1      35.790 -22.405 -16.899  0.00  0.00    +0.002 C 
ATOM     21  C   UNL     1      35.571 -21.643 -19.181  0.00  0.00    +0.006 C 
ATOM     22  C   UNL     1      34.226 -22.014 -19.177  0.00  0.00    +0.136 C 
ATOM     23  C   UNL     1      36.352 -21.839 -18.042  0.00  0.00    -0.002 C 
ATOM     24  C   UNL     1      36.175 -21.035 -20.401  0.00  0.00    +0.033 C 
ENDBRANCH   4  18
TORSDOF 2
ENDMDL
MODEL 6
REMARK VINA RESULT:      -9.4      6.494     12.226
REMARK  Name = 24808495
REMARK  2 active torsions:
REMARK  status: ('A' for Active; 'I' for Inactive)
REMARK    1  A    between atoms: C_2  and  C_16
REMARK    2  A    between atoms: C_4  and  C_18
REMARK                            x       y       z     vdW  Elec       q    Type
REMARK                         _______ _______ _______ _____ _____    ______ ____
ROOT
ATOM      1  N   UNL     1      34.444 -17.151 -22.482  0.00  0.00    -0.401 NA
ATOM      2  C   UNL     1      34.467 -16.242 -23.482  0.00  0.00    +0.184 C 
ATOM      3  C   UNL     1      34.541 -16.569 -24.826  0.00  0.00    +0.033 C 
ATOM      4  C   UNL     1      34.498 -18.450 -22.850  0.00  0.00    +0.114 C 
ATOM      5  C   UNL     1      34.595 -17.916 -25.166  0.00  0.00    -0.016 C 
ATOM      6  C   UNL     1      34.574 -18.881 -24.165  0.00  0.00    +0.085 C 
ENDROOT
BRANCH   2  16
ATOM      7  O   UNL     1      35.076 -14.535 -22.077  0.00  0.00    -0.267 OA
ATOM      8  N   UNL     1      33.610 -13.963 -23.809  0.00  0.00    -0.274 N 
ATOM      9  C   UNL     1      33.190 -13.470 -26.220  0.00  0.00    +0.018 C 
ATOM     10  C   UNL     1      33.148 -11.970 -25.844  0.00  0.00    +0.003 C 
ATOM     11  C   UNL     1      32.815 -14.330 -24.991  0.00  0.00    +0.094 C 
ATOM     12  C   UNL     1      33.945 -11.652 -24.578  0.00  0.00    +0.022 C 
ATOM     13  C   UNL     1      33.528 -12.557 -23.424  0.00  0.00    +0.094 C 
ATOM     14  C   UNL     1      34.589 -13.863 -26.733  0.00  0.00    +0.002 C 
ATOM     15  C   UNL     1      32.175 -13.734 -27.347  0.00  0.00    +0.002 C 
ATOM     16  C   UNL     1      34.408 -14.836 -23.065  0.00  0.00    +0.279 C 
ENDBRANCH   2  16
BRANCH   4  18
ATOM     17  F   UNL     1      36.783 -21.408 -19.801  0.00  0.00    -0.205 F 
ATOM     18  C   UNL     1      34.472 -19.395 -21.759  0.00  0.00    +0.028 C 
ATOM     19  C   UNL     1      35.660 -19.958 -21.296  0.00  0.00    +0.032 C 
ATOM     20  C   UNL     1      33.257 -19.745 -21.167  0.00  0.00    +0.002 C 
ATOM     21  C   UNL     1      34.420 -21.221 -19.650  0.00  0.00    +0.006 C 
ATOM     22  C   UNL     1      35.635 -20.872 -20.241  0.00  0.00    +0.136 C 
ATOM     23  C   UNL     1      33.232 -20.657 -20.114  0.00  0.00    -0.002 C 
ATOM     24  C   UNL     1      34.390 -22.195 -18.522  0.00  0.00    +0.033 C 
ENDBRANCH   4  18
TORSDOF 2
ENDMDL
MODEL 7
REMARK VINA RESULT:      -9.3     10.439     15.391
REMARK  Name = 24808495
REMARK  2 active torsions:
REMARK  status: ('A' for Active; 'I' for Inactive)
REMARK    1  A    between atoms: C_2  and  C_16
REMARK    2  A    between atoms: C_4  and  C_18
REMARK                            x       y       z     vdW  Elec       q    Type
REMARK                         _______ _______ _______ _____ _____    ______ ____
ROOT
ATOM      1  N   UNL     1      33.164 -12.294 -22.731  0.00  0.00    -0.401 NA
ATOM      2  C   UNL     1      32.856 -11.086 -23.254  0.00  0.00    +0.184 C 
ATOM      3  C   UNL     1      33.159 -10.702 -24.550  0.00  0.00    +0.033 C 
ATOM      4  C   UNL     1      33.807 -13.156 -23.548  0.00  0.00    +0.114 C 
ATOM      5  C   UNL     1      33.822 -11.616 -25.361  0.00  0.00    -0.016 C 
ATOM      6  C   UNL     1      34.155 -12.870 -24.859  0.00  0.00    +0.085 C 
ENDROOT
BRANCH   2  16
ATOM      7  O   UNL     1      31.748 -10.640 -21.296  0.00  0.00    -0.267 OA
ATOM      8  N   UNL     1      32.017  -8.832 -22.757  0.00  0.00    -0.274 N 
ATOM      9  C   UNL     1      33.454  -7.063 -23.777  0.00  0.00    +0.018 C 
ATOM     10  C   UNL     1      32.774  -6.047 -22.828  0.00  0.00    +0.003 C 
ATOM     11  C   UNL     1      32.513  -8.265 -24.021  0.00  0.00    +0.094 C 
ATOM     12  C   UNL     1      32.228  -6.697 -21.555  0.00  0.00    +0.022 C 
ATOM     13  C   UNL     1      31.329  -7.883 -21.885  0.00  0.00    +0.094 C 
ATOM     14  C   UNL     1      34.790  -7.551 -23.184  0.00  0.00    +0.002 C 
ATOM     15  C   UNL     1      33.749  -6.374 -25.122  0.00  0.00    +0.002 C 
ATOM     16  C   UNL     1      32.158 -10.161 -22.353  0.00  0.00    +0.279 C 
ENDBRANCH   2  16
BRANCH   4  18
ATOM     17  F   UNL     1      34.867 -17.839 -24.003  0.00  0.00    -0.205 F 
ATOM     18  C   UNL     1      34.121 -14.436 -22.960  0.00  0.00    +0.028 C 
ATOM     19  C   UNL     1      34.346 -15.543 -23.777  0.00  0.00    +0.032 C 
ATOM     20  C   UNL     1      34.201 -14.566 -21.572  0.00  0.00    +0.002 C 
ATOM     21  C   UNL     1      34.730 -16.910 -21.822  0.00  0.00    +0.006 C 
ATOM     22  C   UNL     1      34.651 -16.781 -23.209  0.00  0.00    +0.136 C 
ATOM     23  C   UNL     1      34.505 -15.803 -21.004  0.00  0.00    -0.002 C 
ATOM     24  C   UNL     1      35.057 -18.230 -21.211  0.00  0.00    +0.033 C 
ENDBRANCH   4  18
TORSDOF 2
ENDMDL
MODEL 8
REMARK VINA RESULT:      -8.9      9.762     14.806
REMARK  Name = 24808495
REMARK  2 active torsions:
REMARK  status: ('A' for Active; 'I' for Inactive)
REMARK    1  A    between atoms: C_2  and  C_16
REMARK    2  A    between atoms: C_4  and  C_18
REMARK                            x       y       z     vdW  Elec       q    Type
REMARK                         _______ _______ _______ _____ _____    ______ ____
ROOT
ATOM      1  N   UNL     1      34.366 -12.986 -24.627  0.00  0.00    -0.401 NA
ATOM      2  C   UNL     1      34.019 -12.024 -25.512  0.00  0.00    +0.184 C 
ATOM      3  C   UNL     1      33.098 -12.203 -26.531  0.00  0.00    +0.033 C 
ATOM      4  C   UNL     1      33.760 -14.184 -24.775  0.00  0.00    +0.114 C 
ATOM      5  C   UNL     1      32.495 -13.450 -26.651  0.00  0.00    -0.016 C 
ATOM      6  C   UNL     1      32.826 -14.465 -25.760  0.00  0.00    +0.085 C 
ENDROOT
BRANCH   2  16
ATOM      7  O   UNL     1      35.421 -10.369 -26.258  0.00  0.00    -0.267 OA
ATOM      8  N   UNL     1      34.442 -10.017 -24.161  0.00  0.00    -0.274 N 
ATOM      9  C   UNL     1      32.463  -9.405 -22.767  0.00  0.00    +0.018 C 
ATOM     10  C   UNL     1      33.105  -8.010 -22.575  0.00  0.00    +0.003 C 
ATOM     11  C   UNL     1      33.562 -10.452 -23.067  0.00  0.00    +0.094 C 
ATOM     12  C   UNL     1      34.053  -7.630 -23.713  0.00  0.00    +0.022 C 
ATOM     13  C   UNL     1      35.089  -8.723 -23.954  0.00  0.00    +0.094 C 
ATOM     14  C   UNL     1      31.435  -9.376 -23.915  0.00  0.00    +0.002 C 
ATOM     15  C   UNL     1      31.728  -9.802 -21.474  0.00  0.00    +0.002 C 
ATOM     16  C   UNL     1      34.687 -10.729 -25.338  0.00  0.00    +0.279 C 
ENDBRANCH   2  16
BRANCH   4  18
ATOM     17  F   UNL     1      34.690 -15.517 -20.234  0.00  0.00    -0.205 F 
ATOM     18  C   UNL     1      34.151 -15.189 -23.816  0.00  0.00    +0.028 C 
ATOM     19  C   UNL     1      34.235 -14.866 -22.462  0.00  0.00    +0.032 C 
ATOM     20  C   UNL     1      34.446 -16.485 -24.242  0.00  0.00    +0.002 C 
ATOM     21  C   UNL     1      34.907 -17.132 -21.961  0.00  0.00    +0.006 C 
ATOM     22  C   UNL     1      34.613 -15.837 -21.534  0.00  0.00    +0.136 C 
ATOM     23  C   UNL     1      34.824 -17.455 -23.315  0.00  0.00    -0.002 C 
ATOM     24  C   UNL     1      35.310 -18.172 -20.973  0.00  0.00    +0.033 C 
ENDBRANCH   4  18
TORSDOF 2
ENDMDL
MODEL 9
REMARK VINA RESULT:      -8.9      1.787      2.561
REMARK  Name = 24808495
REMARK  2 active torsions:
REMARK  status: ('A' for Active; 'I' for Inactive)
REMARK    1  A    between atoms: C_2  and  C_16
REMARK    2  A    between atoms: C_4  and  C_18
REMARK                            x       y       z     vdW  Elec       q    Type
REMARK                         _______ _______ _______ _____ _____    ______ ____
ROOT
ATOM      1  N   UNL     1      33.654 -23.338 -15.668  0.00  0.00    -0.401 NA
ATOM      2  C   UNL     1      32.821 -23.921 -14.777  0.00  0.00    +0.184 C 
ATOM      3  C   UNL     1      31.478 -24.166 -15.016  0.00  0.00    +0.033 C 
ATOM      4  C   UNL     1      33.112 -22.984 -16.854  0.00  0.00    +0.114 C 
ATOM      5  C   UNL     1      30.957 -23.787 -16.247  0.00  0.00    -0.016 C 
ATOM      6  C   UNL     1      31.782 -23.184 -17.191  0.00  0.00    +0.085 C 
ENDROOT
BRANCH   2  16
ATOM      7  O   UNL     1      32.676 -24.837 -12.679  0.00  0.00    -0.267 OA
ATOM      8  N   UNL     1      34.781 -24.026 -13.301  0.00  0.00    -0.274 N 
ATOM      9  C   UNL     1      36.902 -24.266 -14.595  0.00  0.00    +0.018 C 
ATOM     10  C   UNL     1      37.586 -24.702 -13.277  0.00  0.00    +0.003 C 
ATOM     11  C   UNL     1      35.671 -23.385 -14.280  0.00  0.00    +0.094 C 
ATOM     12  C   UNL     1      36.607 -25.312 -12.273  0.00  0.00    +0.022 C 
ATOM     13  C   UNL     1      35.416 -24.389 -12.037  0.00  0.00    +0.094 C 
ATOM     14  C   UNL     1      36.474 -25.496 -15.418  0.00  0.00    +0.002 C 
ATOM     15  C   UNL     1      37.903 -23.451 -15.434  0.00  0.00    +0.002 C 
ATOM     16  C   UNL     1      33.425 -24.300 -13.494  0.00  0.00    +0.279 C 
ENDBRANCH   2  16
BRANCH   4  18
ATOM     17  F   UNL     1      33.950 -20.569 -20.943  0.00  0.00    -0.205 F 
ATOM     18  C   UNL     1      34.027 -22.365 -17.782  0.00  0.00    +0.028 C 
ATOM     19  C   UNL     1      33.542 -21.754 -18.938  0.00  0.00    +0.032 C 
ATOM     20  C   UNL     1      35.399 -22.375 -17.523  0.00  0.00    +0.002 C 
ATOM     21  C   UNL     1      35.797 -21.165 -19.575  0.00  0.00    +0.006 C 
ATOM     22  C   UNL     1      34.426 -21.154 -19.835  0.00  0.00    +0.136 C 
ATOM     23  C   UNL     1      36.282 -21.776 -18.419  0.00  0.00    -0.002 C 
ATOM     24  C   UNL     1      36.744 -20.524 -20.531  0.00  0.00    +0.033 C 
ENDBRANCH   4  18
TORSDOF 2
ENDMDL
