MODEL 1
REMARK VINA RESULT:     -12.1      0.000      0.000
REMARK  Name = 60795
REMARK  7 active torsions:
REMARK  status: ('A' for Active; 'I' for Inactive)
REMARK    1  A    between atoms: C_1  and  N_2
REMARK    2  A    between atoms: C_1  and  C_17
REMARK    3  A    between atoms: N_3  and  C_11
REMARK    4  A    between atoms: C_17  and  C_18
REMARK    5  A    between atoms: C_18  and  C_19
REMARK    6  A    between atoms: C_19  and  O_20
REMARK    7  A    between atoms: O_20  and  C_26
REMARK                            x       y       z     vdW  Elec       q    Type
REMARK                         _______ _______ _______ _____ _____    ______ ____
ROOT
ATOM      1  C   UNL     1      36.224 -21.785 -18.520  0.00  0.00    -0.077 C 
ENDROOT
BRANCH   1   2
ATOM      2  N   UNL     1      35.823 -20.618 -19.304  0.00  0.00    +0.389 N 
ATOM      3  N   UNL     1      35.213 -19.159 -21.684  0.00  0.00    -0.311 N 
ATOM      4  C   UNL     1      36.893 -20.228 -20.231  0.00  0.00    -0.055 C 
ATOM      5  C   UNL     1      34.592 -20.899 -20.053  0.00  0.00    -0.055 C 
ATOM      6  C   UNL     1      36.508 -18.973 -21.016  0.00  0.00    +0.068 C 
ATOM      7  C   UNL     1      34.130 -19.666 -20.835  0.00  0.00    +0.068 C 
ATOM      8  H   UNL     1      35.647 -19.848 -18.660  0.00  0.00    -0.080 HD
BRANCH   3  11
ATOM      9 CL   UNL     1      34.848 -16.234 -21.077  0.00  0.00    -0.080 Cl
ATOM     10 CL   UNL     1      34.156 -14.455 -23.659  0.00  0.00    -0.081 Cl
ATOM     11  C   UNL     1      34.912 -18.340 -22.777  0.00  0.00    +0.059 C 
ATOM     12  C   UNL     1      34.710 -16.948 -22.654  0.00  0.00    +0.081 C 
ATOM     13  C   UNL     1      34.800 -18.910 -24.062  0.00  0.00    +0.015 C 
ATOM     14  C   UNL     1      34.409 -16.163 -23.768  0.00  0.00    +0.069 C 
ATOM     15  C   UNL     1      34.500 -18.124 -25.175  0.00  0.00    +0.002 C 
ATOM     16  C   UNL     1      34.305 -16.751 -25.028  0.00  0.00    +0.012 C 
ENDBRANCH   3  11
ENDBRANCH   1   2
BRANCH   1  17
ATOM     17  C   UNL     1      36.905 -21.346 -17.225  0.00  0.00    -0.019 C 
BRANCH  17  18
ATOM     18  C   UNL     1      37.598 -22.523 -16.538  0.00  0.00    +0.045 C 
BRANCH  18  19
ATOM     19  C   UNL     1      36.709 -23.157 -15.476  0.00  0.00    +0.205 C 
BRANCH  19  20
ATOM     20  O   UNL     1      35.708 -23.959 -16.100  0.00  0.00    -0.475 OA
BRANCH  20  26
ATOM     21  O   UNL     1      28.890 -22.313 -17.217  0.00  0.00    -0.275 OA
ATOM     22  N   UNL     1      31.100 -22.799 -16.828  0.00  0.00    -0.284 N 
ATOM     23  C   UNL     1      31.825 -23.604 -14.651  0.00  0.00    -0.008 C 
ATOM     24  C   UNL     1      30.439 -23.367 -14.122  0.00  0.00    +0.037 C 
ATOM     25  C   UNL     1      32.117 -23.273 -15.980  0.00  0.00    +0.049 C 
ATOM     26  C   UNL     1      34.437 -23.842 -15.627  0.00  0.00    +0.140 C 
ATOM     27  C   UNL     1      29.402 -23.540 -15.221  0.00  0.00    +0.090 C 
ATOM     28  C   UNL     1      33.423 -23.381 -16.467  0.00  0.00    +0.051 C 
ATOM     29  C   UNL     1      32.852 -24.052 -13.814  0.00  0.00    +0.000 C 
ATOM     30  C   UNL     1      34.152 -24.180 -14.305  0.00  0.00    +0.037 C 
ATOM     31  C   UNL     1      29.760 -22.797 -16.494  0.00  0.00    +0.226 C 
ATOM     32  H   UNL     1      31.359 -22.448 -17.712  0.00  0.00    +0.155 HD
ENDBRANCH  20  26
ENDBRANCH  19  20
ENDBRANCH  18  19
ENDBRANCH  17  18
ENDBRANCH   1  17
TORSDOF 7
ENDMDL
MODEL 2
REMARK VINA RESULT:     -11.6      6.822     11.680
REMARK  Name = 60795
REMARK  7 active torsions:
REMARK  status: ('A' for Active; 'I' for Inactive)
REMARK    1  A    between atoms: C_1  and  N_2
REMARK    2  A    between atoms: C_1  and  C_17
REMARK    3  A    between atoms: N_3  and  C_11
REMARK    4  A    between atoms: C_17  and  C_18
REMARK    5  A    between atoms: C_18  and  C_19
REMARK    6  A    between atoms: C_19  and  O_20
REMARK    7  A    between atoms: O_20  and  C_26
REMARK                            x       y       z     vdW  Elec       q    Type
REMARK                         _______ _______ _______ _____ _____    ______ ____
ROOT
ATOM      1  C   UNL     1      34.019 -15.238 -24.213  0.00  0.00    -0.077 C 
ENDROOT
BRANCH   1   2
ATOM      2  N   UNL     1      34.740 -16.187 -23.365  0.00  0.00    +0.389 N 
ATOM      3  N   UNL     1      35.037 -18.477 -21.684  0.00  0.00    -0.311 N 
ATOM      4  C   UNL     1      34.182 -16.189 -22.007  0.00  0.00    -0.055 C 
ATOM      5  C   UNL     1      34.676 -17.538 -23.933  0.00  0.00    -0.055 C 
ATOM      6  C   UNL     1      34.963 -17.135 -21.093  0.00  0.00    +0.068 C 
ATOM      7  C   UNL     1      35.473 -18.532 -23.083  0.00  0.00    +0.068 C 
ATOM      8  H   UNL     1      35.715 -15.895 -23.319  0.00  0.00    -0.080 HD
BRANCH   3  11
ATOM      9 CL   UNL     1      32.634 -20.014 -20.724  0.00  0.00    -0.080 Cl
ATOM     10 CL   UNL     1      33.358 -22.463 -18.779  0.00  0.00    -0.081 Cl
ATOM     11  C   UNL     1      35.300 -19.557 -20.834  0.00  0.00    +0.059 C 
ATOM     12  C   UNL     1      34.279 -20.373 -20.299  0.00  0.00    +0.081 C 
ATOM     13  C   UNL     1      36.633 -19.858 -20.484  0.00  0.00    +0.015 C 
ATOM     14  C   UNL     1      34.579 -21.441 -19.453  0.00  0.00    +0.069 C 
ATOM     15  C   UNL     1      36.933 -20.927 -19.639  0.00  0.00    +0.002 C 
ATOM     16  C   UNL     1      35.906 -21.718 -19.123  0.00  0.00    +0.012 C 
ENDBRANCH   3  11
ENDBRANCH   1   2
BRANCH   1  17
ATOM     17  C   UNL     1      34.006 -13.853 -23.570  0.00  0.00    -0.019 C 
BRANCH  17  18
ATOM     18  C   UNL     1      32.579 -13.397 -23.267  0.00  0.00    +0.045 C 
BRANCH  18  19
ATOM     19  C   UNL     1      32.372 -13.147 -21.779  0.00  0.00    +0.205 C 
BRANCH  19  20
ATOM     20  O   UNL     1      31.251 -12.287 -21.585  0.00  0.00    -0.475 OA
BRANCH  20  26
ATOM     21  O   UNL     1      32.279  -5.621 -23.813  0.00  0.00    -0.275 OA
ATOM     22  N   UNL     1      32.000  -7.780 -23.084  0.00  0.00    -0.284 N 
ATOM     23  C   UNL     1      32.054  -8.299 -20.708  0.00  0.00    -0.008 C 
ATOM     24  C   UNL     1      32.447  -6.878 -20.425  0.00  0.00    +0.037 C 
ATOM     25  C   UNL     1      31.882  -8.712 -22.037  0.00  0.00    +0.049 C 
ATOM     26  C   UNL     1      31.514 -10.981 -21.301  0.00  0.00    +0.140 C 
ATOM     27  C   UNL     1      31.870  -5.937 -21.471  0.00  0.00    +0.090 C 
ATOM     28  C   UNL     1      31.623 -10.052 -22.335  0.00  0.00    +0.051 C 
ATOM     29  C   UNL     1      31.956  -9.242 -19.680  0.00  0.00    +0.000 C 
ATOM     30  C   UNL     1      31.677 -10.578 -19.976  0.00  0.00    +0.037 C 
ATOM     31  C   UNL     1      32.104  -6.417 -22.891  0.00  0.00    +0.226 C 
ATOM     32  H   UNL     1      32.009  -8.121 -24.008  0.00  0.00    +0.155 HD
ENDBRANCH  20  26
ENDBRANCH  19  20
ENDBRANCH  18  19
ENDBRANCH  17  18
ENDBRANCH   1  17
TORSDOF 7
ENDMDL
MODEL 3
REMARK VINA RESULT:     -11.5      2.251      4.575
REMARK  Name = 60795
REMARK  7 active torsions:
REMARK  status: ('A' for Active; 'I' for Inactive)
REMARK    1  A    between atoms: C_1  and  N_2
REMARK    2  A    between atoms: C_1  and  C_17
REMARK    3  A    between atoms: N_3  and  C_11
REMARK    4  A    between atoms: C_17  and  C_18
REMARK    5  A    between atoms: C_18  and  C_19
REMARK    6  A    between atoms: C_19  and  O_20
REMARK    7  A    between atoms: O_20  and  C_26
REMARK                            x       y       z     vdW  Elec       q    Type
REMARK                         _______ _______ _______ _____ _____    ______ ____
ROOT
ATOM      1  C   UNL     1      35.131 -22.043 -18.734  0.00  0.00    -0.077 C 
ENDROOT
BRANCH   1   2
ATOM      2  N   UNL     1      34.984 -20.778 -19.453  0.00  0.00    +0.389 N 
ATOM      3  N   UNL     1      34.771 -19.094 -21.751  0.00  0.00    -0.311 N 
ATOM      4  C   UNL     1      36.155 -20.529 -20.303  0.00  0.00    -0.055 C 
ATOM      5  C   UNL     1      33.766 -20.790 -20.272  0.00  0.00    -0.055 C 
ATOM      6  C   UNL     1      36.040 -19.182 -21.017  0.00  0.00    +0.068 C 
ATOM      7  C   UNL     1      33.571 -19.450 -20.987  0.00  0.00    +0.068 C 
ATOM      8  H   UNL     1      34.911 -20.029 -18.766  0.00  0.00    -0.080 HD
BRANCH   3  11
ATOM      9 CL   UNL     1      34.546 -16.203 -20.942  0.00  0.00    -0.080 Cl
ATOM     10 CL   UNL     1      34.335 -14.179 -23.424  0.00  0.00    -0.081 Cl
ATOM     11  C   UNL     1      34.678 -18.170 -22.797  0.00  0.00    +0.059 C 
ATOM     12  C   UNL     1      34.565 -16.780 -22.579  0.00  0.00    +0.081 C 
ATOM     13  C   UNL     1      34.694 -18.627 -24.131  0.00  0.00    +0.015 C 
ATOM     14  C   UNL     1      34.473 -15.888 -23.649  0.00  0.00    +0.069 C 
ATOM     15  C   UNL     1      34.603 -17.736 -25.200  0.00  0.00    +0.002 C 
ATOM     16  C   UNL     1      34.492 -16.366 -24.959  0.00  0.00    +0.012 C 
ENDBRANCH   3  11
ENDBRANCH   1   2
BRANCH   1  17
ATOM     17  C   UNL     1      33.842 -22.857 -18.823  0.00  0.00    -0.019 C 
BRANCH  17  18
ATOM     18  C   UNL     1      32.980 -22.666 -17.576  0.00  0.00    +0.045 C 
BRANCH  18  19
ATOM     19  C   UNL     1      33.346 -23.658 -16.481  0.00  0.00    +0.205 C 
BRANCH  19  20
ATOM     20  O   UNL     1      33.974 -22.974 -15.399  0.00  0.00    -0.475 OA
BRANCH  20  26
ATOM     21  O   UNL     1      40.471 -25.844 -15.428  0.00  0.00    -0.275 OA
ATOM     22  N   UNL     1      38.349 -24.966 -15.420  0.00  0.00    -0.284 N 
ATOM     23  C   UNL     1      37.011 -24.986 -13.389  0.00  0.00    -0.008 C 
ATOM     24  C   UNL     1      38.076 -25.804 -12.717  0.00  0.00    +0.037 C 
ATOM     25  C   UNL     1      37.168 -24.628 -14.735  0.00  0.00    +0.049 C 
ATOM     26  C   UNL     1      34.969 -23.632 -14.743  0.00  0.00    +0.140 C 
ATOM     27  C   UNL     1      39.448 -25.483 -13.289  0.00  0.00    +0.090 C 
ATOM     28  C   UNL     1      36.146 -23.961 -15.415  0.00  0.00    +0.051 C 
ATOM     29  C   UNL     1      35.821 -24.663 -12.729  0.00  0.00    +0.000 C 
ATOM     30  C   UNL     1      34.807 -23.980 -13.403  0.00  0.00    +0.037 C 
ATOM     31  C   UNL     1      39.471 -25.486 -14.806  0.00  0.00    +0.226 C 
ATOM     32  H   UNL     1      38.377 -24.823 -16.394  0.00  0.00    +0.155 HD
ENDBRANCH  20  26
ENDBRANCH  19  20
ENDBRANCH  18  19
ENDBRANCH  17  18
ENDBRANCH   1  17
TORSDOF 7
ENDMDL
MODEL 4
REMARK VINA RESULT:     -11.4      1.410      2.010
REMARK  Name = 60795
REMARK  7 active torsions:
REMARK  status: ('A' for Active; 'I' for Inactive)
REMARK    1  A    between atoms: C_1  and  N_2
REMARK    2  A    between atoms: C_1  and  C_17
REMARK    3  A    between atoms: N_3  and  C_11
REMARK    4  A    between atoms: C_17  and  C_18
REMARK    5  A    between atoms: C_18  and  C_19
REMARK    6  A    between atoms: C_19  and  O_20
REMARK    7  A    between atoms: O_20  and  C_26
REMARK                            x       y       z     vdW  Elec       q    Type
REMARK                         _______ _______ _______ _____ _____    ______ ____
ROOT
ATOM      1  C   UNL     1      36.138 -21.243 -20.209  0.00  0.00    -0.077 C 
ENDROOT
BRANCH   1   2
ATOM      2  N   UNL     1      35.555 -19.906 -20.315  0.00  0.00    +0.389 N 
ATOM      3  N   UNL     1      34.468 -17.635 -21.665  0.00  0.00    -0.311 N 
ATOM      4  C   UNL     1      36.424 -19.027 -21.109  0.00  0.00    -0.055 C 
ATOM      5  C   UNL     1      34.221 -19.972 -20.924  0.00  0.00    -0.055 C 
ATOM      6  C   UNL     1      35.854 -17.610 -21.179  0.00  0.00    +0.068 C 
ATOM      7  C   UNL     1      33.577 -18.585 -20.991  0.00  0.00    +0.068 C 
ATOM      8  H   UNL     1      35.468 -19.521 -19.375  0.00  0.00    -0.080 HD
BRANCH   3  11
ATOM      9 CL   UNL     1      34.695 -17.363 -24.654  0.00  0.00    -0.080 Cl
ATOM     10 CL   UNL     1      33.458 -14.631 -25.801  0.00  0.00    -0.081 Cl
ATOM     11  C   UNL     1      33.941 -16.461 -22.215  0.00  0.00    +0.059 C 
ATOM     12  C   UNL     1      33.973 -16.187 -23.599  0.00  0.00    +0.081 C 
ATOM     13  C   UNL     1      33.351 -15.500 -21.368  0.00  0.00    +0.015 C 
ATOM     14  C   UNL     1      33.439 -15.004 -24.112  0.00  0.00    +0.069 C 
ATOM     15  C   UNL     1      32.817 -14.319 -21.880  0.00  0.00    +0.002 C 
ATOM     16  C   UNL     1      32.861 -14.070 -23.252  0.00  0.00    +0.012 C 
ENDBRANCH   3  11
ENDBRANCH   1   2
BRANCH   1  17
ATOM     17  C   UNL     1      35.652 -21.934 -18.937  0.00  0.00    -0.019 C 
BRANCH  17  18
ATOM     18  C   UNL     1      36.590 -21.657 -17.763  0.00  0.00    +0.045 C 
BRANCH  18  19
ATOM     19  C   UNL     1      36.163 -22.411 -16.511  0.00  0.00    +0.205 C 
BRANCH  19  20
ATOM     20  O   UNL     1      35.238 -23.440 -16.858  0.00  0.00    -0.475 OA
BRANCH  20  26
ATOM     21  O   UNL     1      28.234 -22.312 -17.215  0.00  0.00    -0.275 OA
ATOM     22  N   UNL     1      30.504 -22.630 -17.073  0.00  0.00    -0.284 N 
ATOM     23  C   UNL     1      31.523 -23.354 -14.987  0.00  0.00    -0.008 C 
ATOM     24  C   UNL     1      30.191 -23.213 -14.308  0.00  0.00    +0.037 C 
ATOM     25  C   UNL     1      31.641 -23.017 -16.342  0.00  0.00    +0.049 C 
ATOM     26  C   UNL     1      34.021 -23.411 -16.247  0.00  0.00    +0.140 C 
ATOM     27  C   UNL     1      29.055 -23.475 -15.284  0.00  0.00    +0.090 C 
ATOM     28  C   UNL     1      32.890 -23.036 -16.970  0.00  0.00    +0.051 C 
ATOM     29  C   UNL     1      32.667 -23.715 -14.268  0.00  0.00    +0.000 C 
ATOM     30  C   UNL     1      33.911 -23.753 -14.900  0.00  0.00    +0.037 C 
ATOM     31  C   UNL     1      29.213 -22.722 -16.592  0.00  0.00    +0.226 C 
ATOM     32  H   UNL     1      30.637 -22.271 -17.981  0.00  0.00    +0.155 HD
ENDBRANCH  20  26
ENDBRANCH  19  20
ENDBRANCH  18  19
ENDBRANCH  17  18
ENDBRANCH   1  17
TORSDOF 7
ENDMDL
MODEL 5
REMARK VINA RESULT:     -11.3      3.815      6.708
REMARK  Name = 60795
REMARK  7 active torsions:
REMARK  status: ('A' for Active; 'I' for Inactive)
REMARK    1  A    between atoms: C_1  and  N_2
REMARK    2  A    between atoms: C_1  and  C_17
REMARK    3  A    between atoms: N_3  and  C_11
REMARK    4  A    between atoms: C_17  and  C_18
REMARK    5  A    between atoms: C_18  and  C_19
REMARK    6  A    between atoms: C_19  and  O_20
REMARK    7  A    between atoms: O_20  and  C_26
REMARK                            x       y       z     vdW  Elec       q    Type
REMARK                         _______ _______ _______ _____ _____    ______ ____
ROOT
ATOM      1  C   UNL     1      34.927 -16.959 -25.033  0.00  0.00    -0.077 C 
ENDROOT
BRANCH   1   2
ATOM      2  N   UNL     1      34.054 -15.968 -24.406  0.00  0.00    +0.389 N 
ATOM      3  N   UNL     1      33.241 -13.354 -23.589  0.00  0.00    -0.311 N 
ATOM      4  C   UNL     1      34.757 -15.277 -23.318  0.00  0.00    -0.055 C 
ATOM      5  C   UNL     1      33.587 -14.991 -25.397  0.00  0.00    -0.055 C 
ATOM      6  C   UNL     1      33.836 -14.278 -22.615  0.00  0.00    +0.068 C 
ATOM      7  C   UNL     1      32.627 -13.980 -24.765  0.00  0.00    +0.068 C 
ATOM      8  H   UNL     1      33.247 -16.455 -24.019  0.00  0.00    -0.080 HD
BRANCH   3  11
ATOM      9 CL   UNL     1      34.363 -10.893 -24.910  0.00  0.00    -0.080 Cl
ATOM     10 CL   UNL     1      33.171  -8.147 -23.752  0.00  0.00    -0.081 Cl
ATOM     11  C   UNL     1      32.751 -12.130 -23.121  0.00  0.00    +0.059 C 
ATOM     12  C   UNL     1      33.181 -10.889 -23.638  0.00  0.00    +0.081 C 
ATOM     13  C   UNL     1      31.789 -12.115 -22.090  0.00  0.00    +0.015 C 
ATOM     14  C   UNL     1      32.671  -9.687 -23.145  0.00  0.00    +0.069 C 
ATOM     15  C   UNL     1      31.278 -10.914 -21.597  0.00  0.00    +0.002 C 
ATOM     16  C   UNL     1      31.719  -9.700 -22.125  0.00  0.00    +0.012 C 
ENDBRANCH   3  11
ENDBRANCH   1   2
BRANCH   1  17
ATOM     17  C   UNL     1      34.202 -18.296 -25.167  0.00  0.00    -0.019 C 
BRANCH  17  18
ATOM     18  C   UNL     1      34.835 -19.361 -24.272  0.00  0.00    +0.045 C 
BRANCH  18  19
ATOM     19  C   UNL     1      35.010 -18.864 -22.844  0.00  0.00    +0.205 C 
BRANCH  19  20
ATOM     20  O   UNL     1      33.920 -19.309 -22.040  0.00  0.00    -0.475 OA
BRANCH  20  26
ATOM     21  O   UNL     1      31.740 -23.447 -16.693  0.00  0.00    -0.275 OA
ATOM     22  N   UNL     1      32.458 -22.070 -18.386  0.00  0.00    -0.284 N 
ATOM     23  C   UNL     1      34.833 -21.788 -18.826  0.00  0.00    -0.008 C 
ATOM     24  C   UNL     1      35.139 -22.599 -17.599  0.00  0.00    +0.037 C 
ATOM     25  C   UNL     1      33.498 -21.518 -19.155  0.00  0.00    +0.049 C 
ATOM     26  C   UNL     1      34.216 -20.121 -20.987  0.00  0.00    +0.140 C 
ATOM     27  C   UNL     1      34.043 -23.621 -17.339  0.00  0.00    +0.090 C 
ATOM     28  C   UNL     1      33.188 -20.678 -20.228  0.00  0.00    +0.051 C 
ATOM     29  C   UNL     1      35.856 -21.213 -19.586  0.00  0.00    +0.000 C 
ATOM     30  C   UNL     1      35.547 -20.389 -20.670  0.00  0.00    +0.037 C 
ATOM     31  C   UNL     1      32.650 -23.026 -17.407  0.00  0.00    +0.226 C 
ATOM     32  H   UNL     1      31.540 -21.757 -18.556  0.00  0.00    +0.155 HD
ENDBRANCH  20  26
ENDBRANCH  19  20
ENDBRANCH  18  19
ENDBRANCH  17  18
ENDBRANCH   1  17
TORSDOF 7
ENDMDL
MODEL 6
REMARK VINA RESULT:     -11.3      8.702     13.878
REMARK  Name = 60795
REMARK  7 active torsions:
REMARK  status: ('A' for Active; 'I' for Inactive)
REMARK    1  A    between atoms: C_1  and  N_2
REMARK    2  A    between atoms: C_1  and  C_17
REMARK    3  A    between atoms: N_3  and  C_11
REMARK    4  A    between atoms: C_17  and  C_18
REMARK    5  A    between atoms: C_18  and  C_19
REMARK    6  A    between atoms: C_19  and  O_20
REMARK    7  A    between atoms: O_20  and  C_26
REMARK                            x       y       z     vdW  Elec       q    Type
REMARK                         _______ _______ _______ _____ _____    ______ ____
ROOT
ATOM      1  C   UNL     1      31.561 -10.984 -21.843  0.00  0.00    -0.077 C 
ENDROOT
BRANCH   1   2
ATOM      2  N   UNL     1      31.847 -12.321 -22.361  0.00  0.00    +0.389 N 
ATOM      3  N   UNL     1      33.428 -14.655 -22.829  0.00  0.00    -0.311 N 
ATOM      4  C   UNL     1      32.973 -12.279 -23.302  0.00  0.00    -0.055 C 
ATOM      5  C   UNL     1      32.148 -13.247 -21.263  0.00  0.00    -0.055 C 
ATOM      6  C   UNL     1      33.245 -13.663 -23.896  0.00  0.00    +0.068 C 
ATOM      7  C   UNL     1      32.395 -14.664 -21.788  0.00  0.00    +0.068 C 
ATOM      8  H   UNL     1      31.018 -12.655 -22.854  0.00  0.00    -0.080 HD
BRANCH   3  11
ATOM      9 CL   UNL     1      34.834 -16.003 -20.534  0.00  0.00    -0.080 Cl
ATOM     10 CL   UNL     1      36.369 -18.697 -21.362  0.00  0.00    -0.081 Cl
ATOM     11  C   UNL     1      34.111 -15.836 -23.138  0.00  0.00    +0.059 C 
ATOM     12  C   UNL     1      34.819 -16.582 -22.171  0.00  0.00    +0.081 C 
ATOM     13  C   UNL     1      34.104 -16.317 -24.464  0.00  0.00    +0.015 C 
ATOM     14  C   UNL     1      35.491 -17.755 -22.517  0.00  0.00    +0.069 C 
ATOM     15  C   UNL     1      34.774 -17.490 -24.809  0.00  0.00    +0.002 C 
ATOM     16  C   UNL     1      35.468 -18.209 -23.835  0.00  0.00    +0.012 C 
ENDBRANCH   3  11
ENDBRANCH   1   2
BRANCH   1  17
ATOM     17  C   UNL     1      31.350 -11.035 -20.331  0.00  0.00    -0.019 C 
BRANCH  17  18
ATOM     18  C   UNL     1      32.120  -9.918 -19.627  0.00  0.00    +0.045 C 
BRANCH  18  19
ATOM     19  C   UNL     1      31.847  -8.561 -20.261  0.00  0.00    +0.205 C 
BRANCH  19  20
ATOM     20  O   UNL     1      33.068  -7.993 -20.731  0.00  0.00    -0.475 OA
BRANCH  20  26
ATOM     21  O   UNL     1      30.039  -3.194 -25.004  0.00  0.00    -0.275 OA
ATOM     22  N   UNL     1      30.996  -4.786 -23.652  0.00  0.00    -0.284 N 
ATOM     23  C   UNL     1      32.956  -6.020 -24.393  0.00  0.00    -0.008 C 
ATOM     24  C   UNL     1      32.832  -5.374 -25.742  0.00  0.00    +0.037 C 
ATOM     25  C   UNL     1      32.006  -5.732 -23.404  0.00  0.00    +0.049 C 
ATOM     26  C   UNL     1      33.029  -7.346 -21.929  0.00  0.00    +0.140 C 
ATOM     27  C   UNL     1      32.216  -3.988 -25.625  0.00  0.00    +0.090 C 
ATOM     28  C   UNL     1      32.035  -6.400 -22.177  0.00  0.00    +0.051 C 
ATOM     29  C   UNL     1      33.940  -6.981 -24.138  0.00  0.00    +0.000 C 
ATOM     30  C   UNL     1      33.982  -7.634 -22.906  0.00  0.00    +0.037 C 
ATOM     31  C   UNL     1      30.967  -3.967 -24.764  0.00  0.00    +0.226 C 
ATOM     32  H   UNL     1      30.267  -4.702 -22.995  0.00  0.00    +0.155 HD
ENDBRANCH  20  26
ENDBRANCH  19  20
ENDBRANCH  18  19
ENDBRANCH  17  18
ENDBRANCH   1  17
TORSDOF 7
ENDMDL
MODEL 7
REMARK VINA RESULT:     -11.3      7.481     12.578
REMARK  Name = 60795
REMARK  7 active torsions:
REMARK  status: ('A' for Active; 'I' for Inactive)
REMARK    1  A    between atoms: C_1  and  N_2
REMARK    2  A    between atoms: C_1  and  C_17
REMARK    3  A    between atoms: N_3  and  C_11
REMARK    4  A    between atoms: C_17  and  C_18
REMARK    5  A    between atoms: C_18  and  C_19
REMARK    6  A    between atoms: C_19  and  O_20
REMARK    7  A    between atoms: O_20  and  C_26
REMARK                            x       y       z     vdW  Elec       q    Type
REMARK                         _______ _______ _______ _____ _____    ______ ____
ROOT
ATOM      1  C   UNL     1      33.765 -14.972 -24.044  0.00  0.00    -0.077 C 
ENDROOT
BRANCH   1   2
ATOM      2  N   UNL     1      34.530 -15.908 -23.222  0.00  0.00    +0.389 N 
ATOM      3  N   UNL     1      34.964 -18.274 -21.680  0.00  0.00    -0.311 N 
ATOM      4  C   UNL     1      33.914 -16.055 -21.898  0.00  0.00    -0.055 C 
ATOM      5  C   UNL     1      34.619 -17.217 -23.880  0.00  0.00    -0.055 C 
ATOM      6  C   UNL     1      34.737 -16.988 -21.008  0.00  0.00    +0.068 C 
ATOM      7  C   UNL     1      35.466 -18.191 -23.055  0.00  0.00    +0.068 C 
ATOM      8  H   UNL     1      35.472 -15.534 -23.107  0.00  0.00    -0.080 HD
BRANCH   3  11
ATOM      9 CL   UNL     1      32.640 -19.926 -20.713  0.00  0.00    -0.080 Cl
ATOM     10 CL   UNL     1      33.502 -22.436 -18.907  0.00  0.00    -0.081 Cl
ATOM     11  C   UNL     1      35.287 -19.382 -20.890  0.00  0.00    +0.059 C 
ATOM     12  C   UNL     1      34.309 -20.252 -20.360  0.00  0.00    +0.081 C 
ATOM     13  C   UNL     1      36.639 -19.657 -20.598  0.00  0.00    +0.015 C 
ATOM     14  C   UNL     1      34.669 -21.347 -19.574  0.00  0.00    +0.069 C 
ATOM     15  C   UNL     1      36.998 -20.753 -19.813  0.00  0.00    +0.002 C 
ATOM     16  C   UNL     1      36.013 -21.597 -19.301  0.00  0.00    +0.012 C 
ENDBRANCH   3  11
ENDBRANCH   1   2
BRANCH   1  17
ATOM     17  C   UNL     1      34.030 -13.535 -23.599  0.00  0.00    -0.019 C 
BRANCH  17  18
ATOM     18  C   UNL     1      33.778 -12.548 -24.738  0.00  0.00    +0.045 C 
BRANCH  18  19
ATOM     19  C   UNL     1      33.658 -11.118 -24.227  0.00  0.00    +0.205 C 
BRANCH  19  20
ATOM     20  O   UNL     1      32.606 -11.035 -23.268  0.00  0.00    -0.475 OA
BRANCH  20  26
ATOM     21  O   UNL     1      30.722  -4.280 -24.400  0.00  0.00    -0.275 OA
ATOM     22  N   UNL     1      31.382  -6.447 -24.023  0.00  0.00    -0.284 N 
ATOM     23  C   UNL     1      31.712  -7.263 -21.756  0.00  0.00    -0.008 C 
ATOM     24  C   UNL     1      31.490  -5.870 -21.242  0.00  0.00    +0.037 C 
ATOM     25  C   UNL     1      31.689  -7.495 -23.138  0.00  0.00    +0.049 C 
ATOM     26  C   UNL     1      32.313  -9.799 -22.775  0.00  0.00    +0.140 C 
ATOM     27  C   UNL     1      30.547  -5.099 -22.153  0.00  0.00    +0.090 C 
ATOM     28  C   UNL     1      31.999  -8.759 -23.649  0.00  0.00    +0.051 C 
ATOM     29  C   UNL     1      32.042  -8.310 -20.890  0.00  0.00    +0.000 C 
ATOM     30  C   UNL     1      32.332  -9.577 -21.399  0.00  0.00    +0.037 C 
ATOM     31  C   UNL     1      30.918  -5.211 -23.619  0.00  0.00    +0.226 C 
ATOM     32  H   UNL     1      31.504  -6.605 -24.988  0.00  0.00    +0.155 HD
ENDBRANCH  20  26
ENDBRANCH  19  20
ENDBRANCH  18  19
ENDBRANCH  17  18
ENDBRANCH   1  17
TORSDOF 7
ENDMDL
MODEL 8
REMARK VINA RESULT:     -11.1      7.803     11.684
REMARK  Name = 60795
REMARK  7 active torsions:
REMARK  status: ('A' for Active; 'I' for Inactive)
REMARK    1  A    between atoms: C_1  and  N_2
REMARK    2  A    between atoms: C_1  and  C_17
REMARK    3  A    between atoms: N_3  and  C_11
REMARK    4  A    between atoms: C_17  and  C_18
REMARK    5  A    between atoms: C_18  and  C_19
REMARK    6  A    between atoms: C_19  and  O_20
REMARK    7  A    between atoms: O_20  and  C_26
REMARK                            x       y       z     vdW  Elec       q    Type
REMARK                         _______ _______ _______ _____ _____    ______ ____
ROOT
ATOM      1  C   UNL     1      31.987 -10.189 -20.084  0.00  0.00    -0.077 C 
ENDROOT
BRANCH   1   2
ATOM      2  N   UNL     1      31.636  -9.082 -20.973  0.00  0.00    +0.389 N 
ATOM      3  N   UNL     1      32.057  -7.186 -23.068  0.00  0.00    -0.311 N 
ATOM      4  C   UNL     1      32.557  -7.956 -20.781  0.00  0.00    -0.055 C 
ATOM      5  C   UNL     1      31.666  -9.518 -22.374  0.00  0.00    -0.055 C 
ATOM      6  C   UNL     1      32.167  -6.769 -21.664  0.00  0.00    +0.068 C 
ATOM      7  C   UNL     1      31.246  -8.383 -23.313  0.00  0.00    +0.068 C 
ATOM      8  H   UNL     1      30.691  -8.778 -20.744  0.00  0.00    -0.080 HD
BRANCH   3  11
ATOM      9 CL   UNL     1      34.574  -7.222 -24.719  0.00  0.00    -0.080 Cl
ATOM     10 CL   UNL     1      34.690  -4.917 -26.949  0.00  0.00    -0.081 Cl
ATOM     11  C   UNL     1      32.156  -6.201 -24.057  0.00  0.00    +0.059 C 
ATOM     12  C   UNL     1      33.275  -6.087 -24.910  0.00  0.00    +0.081 C 
ATOM     13  C   UNL     1      31.105  -5.275 -24.222  0.00  0.00    +0.015 C 
ATOM     14  C   UNL     1      33.338  -5.090 -25.885  0.00  0.00    +0.069 C 
ATOM     15  C   UNL     1      31.169  -4.279 -25.197  0.00  0.00    +0.002 C 
ATOM     16  C   UNL     1      32.285  -4.187 -26.028  0.00  0.00    +0.012 C 
ENDBRANCH   3  11
ENDBRANCH   1   2
BRANCH   1  17
ATOM     17  C   UNL     1      31.201 -11.443 -20.462  0.00  0.00    -0.019 C 
BRANCH  17  18
ATOM     18  C   UNL     1      32.124 -12.652 -20.608  0.00  0.00    +0.045 C 
BRANCH  18  19
ATOM     19  C   UNL     1      32.187 -13.139 -22.050  0.00  0.00    +0.205 C 
BRANCH  19  20
ATOM     20  O   UNL     1      33.548 -13.313 -22.442  0.00  0.00    -0.475 OA
BRANCH  20  26
ATOM     21  O   UNL     1      36.093 -19.554 -20.203  0.00  0.00    -0.275 OA
ATOM     22  N   UNL     1      35.319 -17.525 -20.948  0.00  0.00    -0.284 N 
ATOM     23  C   UNL     1      34.792 -17.189 -23.298  0.00  0.00    -0.008 C 
ATOM     24  C   UNL     1      35.345 -18.552 -23.598  0.00  0.00    +0.037 C 
ATOM     25  C   UNL     1      34.835 -16.706 -21.984  0.00  0.00    +0.049 C 
ATOM     26  C   UNL     1      33.955 -14.582 -22.720  0.00  0.00    +0.140 C 
ATOM     27  C   UNL     1      35.161 -19.486 -22.412  0.00  0.00    +0.090 C 
ATOM     28  C   UNL     1      34.427 -15.401 -21.695  0.00  0.00    +0.051 C 
ATOM     29  C   UNL     1      34.330 -16.354 -24.321  0.00  0.00    +0.000 C 
ATOM     30  C   UNL     1      33.904 -15.057 -24.029  0.00  0.00    +0.037 C 
ATOM     31  C   UNL     1      35.603 -18.868 -21.099  0.00  0.00    +0.226 C 
ATOM     32  H   UNL     1      35.464 -17.116 -20.063  0.00  0.00    +0.155 HD
ENDBRANCH  20  26
ENDBRANCH  19  20
ENDBRANCH  18  19
ENDBRANCH  17  18
ENDBRANCH   1  17
TORSDOF 7
ENDMDL
MODEL 9
REMARK VINA RESULT:     -11.0      5.958     11.908
REMARK  Name = 60795
REMARK  7 active torsions:
REMARK  status: ('A' for Active; 'I' for Inactive)
REMARK    1  A    between atoms: C_1  and  N_2
REMARK    2  A    between atoms: C_1  and  C_17
REMARK    3  A    between atoms: N_3  and  C_11
REMARK    4  A    between atoms: C_17  and  C_18
REMARK    5  A    between atoms: C_18  and  C_19
REMARK    6  A    between atoms: C_19  and  O_20
REMARK    7  A    between atoms: O_20  and  C_26
REMARK                            x       y       z     vdW  Elec       q    Type
REMARK                         _______ _______ _______ _____ _____    ______ ____
ROOT
ATOM      1  C   UNL     1      33.644 -15.119 -24.095  0.00  0.00    -0.077 C 
ENDROOT
BRANCH   1   2
ATOM      2  N   UNL     1      34.451 -16.067 -23.329  0.00  0.00    +0.389 N 
ATOM      3  N   UNL     1      34.929 -18.366 -21.701  0.00  0.00    -0.311 N 
ATOM      4  C   UNL     1      34.033 -16.081 -21.922  0.00  0.00    -0.055 C 
ATOM      5  C   UNL     1      34.337 -17.416 -23.897  0.00  0.00    -0.055 C 
ATOM      6  C   UNL     1      34.908 -17.027 -21.098  0.00  0.00    +0.068 C 
ATOM      7  C   UNL     1      35.222 -18.409 -23.138  0.00  0.00    +0.068 C 
ATOM      8  H   UNL     1      35.425 -15.770 -23.380  0.00  0.00    -0.080 HD
BRANCH   3  11
ATOM      9 CL   UNL     1      32.654 -20.080 -20.728  0.00  0.00    -0.080 Cl
ATOM     10 CL   UNL     1      33.583 -22.529 -18.872  0.00  0.00    -0.081 Cl
ATOM     11  C   UNL     1      35.282 -19.449 -20.889  0.00  0.00    +0.059 C 
ATOM     12  C   UNL     1      34.329 -20.343 -20.354  0.00  0.00    +0.081 C 
ATOM     13  C   UNL     1      36.640 -19.673 -20.580  0.00  0.00    +0.015 C 
ATOM     14  C   UNL     1      34.719 -21.412 -19.546  0.00  0.00    +0.069 C 
ATOM     15  C   UNL     1      37.029 -20.742 -19.773  0.00  0.00    +0.002 C 
ATOM     16  C   UNL     1      36.068 -21.611 -19.256  0.00  0.00    +0.012 C 
ENDBRANCH   3  11
ENDBRANCH   1   2
BRANCH   1  17
ATOM     17  C   UNL     1      33.899 -15.290 -25.591  0.00  0.00    -0.019 C 
BRANCH  17  18
ATOM     18  C   UNL     1      32.766 -14.685 -26.419  0.00  0.00    +0.045 C 
BRANCH  18  19
ATOM     19  C   UNL     1      32.926 -13.178 -26.574  0.00  0.00    +0.205 C 
BRANCH  19  20
ATOM     20  O   UNL     1      34.206 -12.775 -26.090  0.00  0.00    -0.475 OA
BRANCH  20  26
ATOM     21  O   UNL     1      31.801  -8.301 -21.125  0.00  0.00    -0.275 OA
ATOM     22  N   UNL     1      32.554  -9.717 -22.769  0.00  0.00    -0.284 N 
ATOM     23  C   UNL     1      34.436  -9.088 -24.176  0.00  0.00    -0.008 C 
ATOM     24  C   UNL     1      34.431  -7.726 -23.544  0.00  0.00    +0.037 C 
ATOM     25  C   UNL     1      33.468 -10.026 -23.793  0.00  0.00    +0.049 C 
ATOM     26  C   UNL     1      34.279 -11.569 -25.463  0.00  0.00    +0.140 C 
ATOM     27  C   UNL     1      33.930  -7.796 -22.109  0.00  0.00    +0.090 C 
ATOM     28  C   UNL     1      33.382 -11.261 -24.441  0.00  0.00    +0.051 C 
ATOM     29  C   UNL     1      35.322  -9.402 -25.212  0.00  0.00    +0.000 C 
ATOM     30  C   UNL     1      35.249 -10.644 -25.846  0.00  0.00    +0.037 C 
ATOM     31  C   UNL     1      32.648  -8.595 -21.969  0.00  0.00    +0.226 C 
ATOM     32  H   UNL     1      31.805 -10.337 -22.614  0.00  0.00    +0.155 HD
ENDBRANCH  20  26
ENDBRANCH  19  20
ENDBRANCH  18  19
ENDBRANCH  17  18
ENDBRANCH   1  17
TORSDOF 7
ENDMDL
