MODEL 1
REMARK VINA RESULT:      -6.7      0.000      0.000
REMARK  Name = 66644
REMARK  3 active torsions:
REMARK  status: ('A' for Active; 'I' for Inactive)
REMARK    1  A    between atoms: C_1  and  C_9
REMARK    2  A    between atoms: C_2  and  O_13
REMARK    3  A    between atoms: N_8  and  O_11
REMARK                            x       y       z     vdW  Elec       q    Type
REMARK                         _______ _______ _______ _____ _____    ______ ____
ROOT
ATOM      1  C   UNL     1      34.819 -18.844 -21.054  0.00  0.00    +0.089 C 
ATOM      2  C   UNL     1      35.860 -19.676 -20.640  0.00  0.00    +0.138 C 
ATOM      3  C   UNL     1      33.495 -19.240 -20.868  0.00  0.00    +0.008 C 
ATOM      4  C   UNL     1      35.575 -20.902 -20.041  0.00  0.00    +0.037 C 
ATOM      5  C   UNL     1      33.210 -20.466 -20.269  0.00  0.00    +0.000 C 
ATOM      6  C   UNL     1      34.250 -21.298 -19.855  0.00  0.00    +0.003 C 
ENDROOT
BRANCH   1   9
ATOM      7  O   UNL     1      34.889 -16.497 -21.070  0.00  0.00    -0.268 OA
ATOM      8  N   UNL     1      35.575 -17.584 -22.984  0.00  0.00    -0.193 N 
ATOM      9  C   UNL     1      35.094 -17.559 -21.683  0.00  0.00    +0.271 C 
ATOM     10  H   UNL     1      35.734 -18.431 -23.459  0.00  0.00    +0.183 HD
BRANCH   8  11
ATOM     11  O   UNL     1      35.824 -16.342 -23.587  0.00  0.00    -0.295 OA
ATOM     12  H   UNL     1      36.499 -15.867 -23.079  0.00  0.00    +0.241 HD
ENDBRANCH   8  11
ENDBRANCH   1   9
BRANCH   2  13
ATOM     13  O   UNL     1      37.161 -19.308 -20.814  0.00  0.00    -0.505 OA
ATOM     14  H   UNL     1      37.498 -19.170 -21.677  0.00  0.00    +0.292 HD
ENDBRANCH   2  13
TORSDOF 3
ENDMDL
MODEL 2
REMARK VINA RESULT:      -6.7      3.555      5.020
REMARK  Name = 66644
REMARK  3 active torsions:
REMARK  status: ('A' for Active; 'I' for Inactive)
REMARK    1  A    between atoms: C_1  and  C_9
REMARK    2  A    between atoms: C_2  and  O_13
REMARK    3  A    between atoms: N_8  and  O_11
REMARK                            x       y       z     vdW  Elec       q    Type
REMARK                         _______ _______ _______ _____ _____    ______ ____
ROOT
ATOM      1  C   UNL     1      34.241 -21.415 -19.608  0.00  0.00    +0.089 C 
ATOM      2  C   UNL     1      35.421 -20.838 -20.079  0.00  0.00    +0.138 C 
ATOM      3  C   UNL     1      33.011 -20.837 -19.920  0.00  0.00    +0.008 C 
ATOM      4  C   UNL     1      35.369 -19.684 -20.861  0.00  0.00    +0.037 C 
ATOM      5  C   UNL     1      32.959 -19.684 -20.701  0.00  0.00    +0.000 C 
ATOM      6  C   UNL     1      34.138 -19.107 -21.173  0.00  0.00    +0.003 C 
ENDROOT
BRANCH   1   9
ATOM      7  O   UNL     1      33.838 -23.697 -19.231  0.00  0.00    -0.268 OA
ATOM      8  N   UNL     1      34.793 -22.498 -17.509  0.00  0.00    -0.193 N 
ATOM      9  C   UNL     1      34.273 -22.619 -18.790  0.00  0.00    +0.271 C 
ATOM     10  H   UNL     1      35.135 -21.639 -17.171  0.00  0.00    +0.183 HD
BRANCH   8  11
ATOM     11  O   UNL     1      34.808 -23.659 -16.722  0.00  0.00    -0.295 OA
ATOM     12  H   UNL     1      33.916 -24.039 -16.692  0.00  0.00    +0.241 HD
ENDBRANCH   8  11
ENDBRANCH   1   9
BRANCH   2  13
ATOM     13  O   UNL     1      36.634 -21.387 -19.786  0.00  0.00    -0.505 OA
ATOM     14  H   UNL     1      37.174 -21.725 -20.473  0.00  0.00    +0.292 HD
ENDBRANCH   2  13
TORSDOF 3
ENDMDL
MODEL 3
REMARK VINA RESULT:      -6.6      8.392      9.470
REMARK  Name = 66644
REMARK  3 active torsions:
REMARK  status: ('A' for Active; 'I' for Inactive)
REMARK    1  A    between atoms: C_1  and  C_9
REMARK    2  A    between atoms: C_2  and  O_13
REMARK    3  A    between atoms: N_8  and  O_11
REMARK                            x       y       z     vdW  Elec       q    Type
REMARK                         _______ _______ _______ _____ _____    ______ ____
ROOT
ATOM      1  C   UNL     1      29.116 -23.625 -15.972  0.00  0.00    +0.089 C 
ATOM      2  C   UNL     1      30.385 -23.117 -16.252  0.00  0.00    +0.138 C 
ATOM      3  C   UNL     1      28.964 -24.631 -15.018  0.00  0.00    +0.008 C 
ATOM      4  C   UNL     1      31.500 -23.615 -15.580  0.00  0.00    +0.037 C 
ATOM      5  C   UNL     1      30.079 -25.130 -14.346  0.00  0.00    +0.000 C 
ATOM      6  C   UNL     1      31.347 -24.622 -14.626  0.00  0.00    +0.003 C 
ENDROOT
BRANCH   1   9
ATOM      7  O   UNL     1      27.759 -23.359 -17.870  0.00  0.00    -0.268 OA
ATOM      8  N   UNL     1      27.049 -22.357 -15.918  0.00  0.00    -0.193 N 
ATOM      9  C   UNL     1      27.938 -23.118 -16.663  0.00  0.00    +0.271 C 
ATOM     10  H   UNL     1      27.201 -22.173 -14.963  0.00  0.00    +0.183 HD
BRANCH   8  11
ATOM     11  O   UNL     1      25.924 -21.861 -16.594  0.00  0.00    -0.295 OA
ATOM     12  H   UNL     1      26.085 -21.887 -17.550  0.00  0.00    +0.241 HD
ENDBRANCH   8  11
ENDBRANCH   1   9
BRANCH   2  13
ATOM     13  O   UNL     1      30.555 -22.133 -17.181  0.00  0.00    -0.505 OA
ATOM     14  H   UNL     1      29.831 -21.589 -17.426  0.00  0.00    +0.292 HD
ENDBRANCH   2  13
TORSDOF 3
ENDMDL
MODEL 4
REMARK VINA RESULT:      -6.6      3.750      5.324
REMARK  Name = 66644
REMARK  3 active torsions:
REMARK  status: ('A' for Active; 'I' for Inactive)
REMARK    1  A    between atoms: C_1  and  C_9
REMARK    2  A    between atoms: C_2  and  O_13
REMARK    3  A    between atoms: N_8  and  O_11
REMARK                            x       y       z     vdW  Elec       q    Type
REMARK                         _______ _______ _______ _____ _____    ______ ____
ROOT
ATOM      1  C   UNL     1      34.858 -21.298 -19.680  0.00  0.00    +0.089 C 
ATOM      2  C   UNL     1      33.886 -20.504 -20.289  0.00  0.00    +0.138 C 
ATOM      3  C   UNL     1      36.206 -20.958 -19.792  0.00  0.00    +0.008 C 
ATOM      4  C   UNL     1      34.262 -19.371 -21.009  0.00  0.00    +0.037 C 
ATOM      5  C   UNL     1      36.582 -19.825 -20.512  0.00  0.00    +0.000 C 
ATOM      6  C   UNL     1      35.611 -19.031 -21.121  0.00  0.00    +0.003 C 
ENDROOT
BRANCH   1   9
ATOM      7  O   UNL     1      33.868 -23.417 -19.468  0.00  0.00    -0.268 OA
ATOM      8  N   UNL     1      34.843 -22.517 -17.583  0.00  0.00    -0.193 N 
ATOM      9  C   UNL     1      34.487 -22.486 -18.923  0.00  0.00    +0.271 C 
ATOM     10  H   UNL     1      35.333 -21.774 -17.162  0.00  0.00    +0.183 HD
BRANCH   8  11
ATOM     11  O   UNL     1      34.470 -23.658 -16.857  0.00  0.00    -0.295 OA
ATOM     12  H   UNL     1      34.815 -23.593 -15.954  0.00  0.00    +0.241 HD
ENDBRANCH   8  11
ENDBRANCH   1   9
BRANCH   2  13
ATOM     13  O   UNL     1      32.563 -20.820 -20.192  0.00  0.00    -0.505 OA
ATOM     14  H   UNL     1      32.162 -20.902 -19.349  0.00  0.00    +0.292 HD
ENDBRANCH   2  13
TORSDOF 3
ENDMDL
MODEL 5
REMARK VINA RESULT:      -6.6      1.939      2.661
REMARK  Name = 66644
REMARK  3 active torsions:
REMARK  status: ('A' for Active; 'I' for Inactive)
REMARK    1  A    between atoms: C_1  and  C_9
REMARK    2  A    between atoms: C_2  and  O_13
REMARK    3  A    between atoms: N_8  and  O_11
REMARK                            x       y       z     vdW  Elec       q    Type
REMARK                         _______ _______ _______ _____ _____    ______ ____
ROOT
ATOM      1  C   UNL     1      34.748 -20.088 -20.559  0.00  0.00    +0.089 C 
ATOM      2  C   UNL     1      33.535 -20.670 -20.188  0.00  0.00    +0.138 C 
ATOM      3  C   UNL     1      35.946 -20.597 -20.060  0.00  0.00    +0.008 C 
ATOM      4  C   UNL     1      33.522 -21.760 -19.318  0.00  0.00    +0.037 C 
ATOM      5  C   UNL     1      35.933 -21.686 -19.189  0.00  0.00    +0.000 C 
ATOM      6  C   UNL     1      34.722 -22.268 -18.818  0.00  0.00    +0.003 C 
ENDROOT
BRANCH   1   9
ATOM      7  O   UNL     1      34.451 -19.078 -22.658  0.00  0.00    -0.268 OA
ATOM      8  N   UNL     1      35.214 -17.739 -20.943  0.00  0.00    -0.193 N 
ATOM      9  C   UNL     1      34.784 -18.950 -21.467  0.00  0.00    +0.271 C 
ATOM     10  H   UNL     1      35.474 -17.649 -19.998  0.00  0.00    +0.183 HD
BRANCH   8  11
ATOM     11  O   UNL     1      35.259 -16.651 -21.826  0.00  0.00    -0.295 OA
ATOM     12  H   UNL     1      34.414 -16.583 -22.298  0.00  0.00    +0.241 HD
ENDBRANCH   8  11
ENDBRANCH   1   9
BRANCH   2  13
ATOM     13  O   UNL     1      32.352 -20.188 -20.665  0.00  0.00    -0.505 OA
ATOM     14  H   UNL     1      31.895 -19.519 -20.194  0.00  0.00    +0.292 HD
ENDBRANCH   2  13
TORSDOF 3
ENDMDL
MODEL 6
REMARK VINA RESULT:      -6.6      2.162      4.121
REMARK  Name = 66644
REMARK  3 active torsions:
REMARK  status: ('A' for Active; 'I' for Inactive)
REMARK    1  A    between atoms: C_1  and  C_9
REMARK    2  A    between atoms: C_2  and  O_13
REMARK    3  A    between atoms: N_8  and  O_11
REMARK                            x       y       z     vdW  Elec       q    Type
REMARK                         _______ _______ _______ _____ _____    ______ ____
ROOT
ATOM      1  C   UNL     1      35.043 -18.690 -21.988  0.00  0.00    +0.089 C 
ATOM      2  C   UNL     1      35.103 -17.314 -21.764  0.00  0.00    +0.138 C 
ATOM      3  C   UNL     1      34.864 -19.177 -23.283  0.00  0.00    +0.008 C 
ATOM      4  C   UNL     1      34.985 -16.427 -22.833  0.00  0.00    +0.037 C 
ATOM      5  C   UNL     1      34.745 -18.290 -24.352  0.00  0.00    +0.000 C 
ATOM      6  C   UNL     1      34.805 -16.914 -24.128  0.00  0.00    +0.003 C 
ENDROOT
BRANCH   1   9
ATOM      7  O   UNL     1      34.201 -20.345 -20.551  0.00  0.00    -0.268 OA
ATOM      8  N   UNL     1      36.387 -19.685 -20.232  0.00  0.00    -0.193 N 
ATOM      9  C   UNL     1      35.164 -19.634 -20.886  0.00  0.00    +0.271 C 
ATOM     10  H   UNL     1      37.143 -19.117 -20.505  0.00  0.00    +0.183 HD
BRANCH   8  11
ATOM     11  O   UNL     1      36.492 -20.586 -19.162  0.00  0.00    -0.295 OA
ATOM     12  H   UNL     1      36.939 -21.392 -19.462  0.00  0.00    +0.241 HD
ENDBRANCH   8  11
ENDBRANCH   1   9
BRANCH   2  13
ATOM     13  O   UNL     1      35.277 -16.817 -20.506  0.00  0.00    -0.505 OA
ATOM     14  H   UNL     1      34.655 -17.015 -19.834  0.00  0.00    +0.292 HD
ENDBRANCH   2  13
TORSDOF 3
ENDMDL
MODEL 7
REMARK VINA RESULT:      -6.5      9.889     10.499
REMARK  Name = 66644
REMARK  3 active torsions:
REMARK  status: ('A' for Active; 'I' for Inactive)
REMARK    1  A    between atoms: C_1  and  C_9
REMARK    2  A    between atoms: C_2  and  O_13
REMARK    3  A    between atoms: N_8  and  O_11
REMARK                            x       y       z     vdW  Elec       q    Type
REMARK                         _______ _______ _______ _____ _____    ______ ____
ROOT
ATOM      1  C   UNL     1      37.698 -25.135 -13.669  0.00  0.00    +0.089 C 
ATOM      2  C   UNL     1      36.312 -25.155 -13.835  0.00  0.00    +0.138 C 
ATOM      3  C   UNL     1      38.265 -24.376 -12.646  0.00  0.00    +0.008 C 
ATOM      4  C   UNL     1      35.497 -24.416 -12.980  0.00  0.00    +0.037 C 
ATOM      5  C   UNL     1      37.450 -23.637 -11.790  0.00  0.00    +0.000 C 
ATOM      6  C   UNL     1      36.065 -23.656 -11.956  0.00  0.00    +0.003 C 
ENDROOT
BRANCH   1   9
ATOM      7  O   UNL     1      38.432 -27.131 -14.665  0.00  0.00    -0.268 OA
ATOM      8  N   UNL     1      39.547 -25.195 -15.237  0.00  0.00    -0.193 N 
ATOM      9  C   UNL     1      38.568 -25.900 -14.552  0.00  0.00    +0.271 C 
ATOM     10  H   UNL     1      39.645 -24.221 -15.139  0.00  0.00    +0.183 HD
BRANCH   8  11
ATOM     11  O   UNL     1      40.390 -25.941 -16.074  0.00  0.00    -0.295 OA
ATOM     12  H   UNL     1      39.863 -26.361 -16.770  0.00  0.00    +0.241 HD
ENDBRANCH   8  11
ENDBRANCH   1   9
BRANCH   2  13
ATOM     13  O   UNL     1      35.738 -25.890 -14.830  0.00  0.00    -0.505 OA
ATOM     14  H   UNL     1      35.065 -25.513 -15.362  0.00  0.00    +0.292 HD
ENDBRANCH   2  13
TORSDOF 3
ENDMDL
MODEL 8
REMARK VINA RESULT:      -6.4      3.940      5.016
REMARK  Name = 66644
REMARK  3 active torsions:
REMARK  status: ('A' for Active; 'I' for Inactive)
REMARK    1  A    between atoms: C_1  and  C_9
REMARK    2  A    between atoms: C_2  and  O_13
REMARK    3  A    between atoms: N_8  and  O_11
REMARK                            x       y       z     vdW  Elec       q    Type
REMARK                         _______ _______ _______ _____ _____    ______ ____
ROOT
ATOM      1  C   UNL     1      33.600 -14.733 -23.171  0.00  0.00    +0.089 C 
ATOM      2  C   UNL     1      34.635 -15.528 -22.676  0.00  0.00    +0.138 C 
ATOM      3  C   UNL     1      32.642 -14.216 -22.299  0.00  0.00    +0.008 C 
ATOM      4  C   UNL     1      34.711 -15.805 -21.312  0.00  0.00    +0.037 C 
ATOM      5  C   UNL     1      32.718 -14.493 -20.935  0.00  0.00    +0.000 C 
ATOM      6  C   UNL     1      33.752 -15.287 -20.440  0.00  0.00    +0.003 C 
ENDROOT
BRANCH   1   9
ATOM      7  O   UNL     1      33.393 -13.258 -24.986  0.00  0.00    -0.268 OA
ATOM      8  N   UNL     1      33.524 -15.508 -25.468  0.00  0.00    -0.193 N 
ATOM      9  C   UNL     1      33.502 -14.432 -24.593  0.00  0.00    +0.271 C 
ATOM     10  H   UNL     1      33.611 -16.434 -25.145  0.00  0.00    +0.183 HD
BRANCH   8  11
ATOM     11  O   UNL     1      33.415 -15.211 -26.834  0.00  0.00    -0.295 OA
ATOM     12  H   UNL     1      33.550 -14.261 -26.969  0.00  0.00    +0.241 HD
ENDBRANCH   8  11
ENDBRANCH   1   9
BRANCH   2  13
ATOM     13  O   UNL     1      35.581 -16.044 -23.512  0.00  0.00    -0.505 OA
ATOM     14  H   UNL     1      36.101 -16.774 -23.238  0.00  0.00    +0.292 HD
ENDBRANCH   2  13
TORSDOF 3
ENDMDL
MODEL 9
REMARK VINA RESULT:      -6.4      2.667      3.822
REMARK  Name = 66644
REMARK  3 active torsions:
REMARK  status: ('A' for Active; 'I' for Inactive)
REMARK    1  A    between atoms: C_1  and  C_9
REMARK    2  A    between atoms: C_2  and  O_13
REMARK    3  A    between atoms: N_8  and  O_11
REMARK                            x       y       z     vdW  Elec       q    Type
REMARK                         _______ _______ _______ _____ _____    ______ ____
ROOT
ATOM      1  C   UNL     1      34.678 -17.367 -23.746  0.00  0.00    +0.089 C 
ATOM      2  C   UNL     1      34.909 -16.505 -22.673  0.00  0.00    +0.138 C 
ATOM      3  C   UNL     1      34.614 -18.744 -23.532  0.00  0.00    +0.008 C 
ATOM      4  C   UNL     1      35.074 -17.021 -21.388  0.00  0.00    +0.037 C 
ATOM      5  C   UNL     1      34.779 -19.259 -22.248  0.00  0.00    +0.000 C 
ATOM      6  C   UNL     1      35.010 -18.398 -21.175  0.00  0.00    +0.003 C 
ENDROOT
BRANCH   1   9
ATOM      7  O   UNL     1      35.121 -17.349 -26.052  0.00  0.00    -0.268 OA
ATOM      8  N   UNL     1      33.634 -15.780 -25.253  0.00  0.00    -0.193 N 
ATOM      9  C   UNL     1      34.503 -16.849 -25.096  0.00  0.00    +0.271 C 
ATOM     10  H   UNL     1      33.149 -15.392 -24.489  0.00  0.00    +0.183 HD
BRANCH   8  11
ATOM     11  O   UNL     1      33.480 -15.277 -26.554  0.00  0.00    -0.295 OA
ATOM     12  H   UNL     1      33.563 -16.003 -27.191  0.00  0.00    +0.241 HD
ENDBRANCH   8  11
ENDBRANCH   1   9
BRANCH   2  13
ATOM     13  O   UNL     1      34.976 -15.157 -22.861  0.00  0.00    -0.505 OA
ATOM     14  H   UNL     1      34.802 -14.575 -22.147  0.00  0.00    +0.292 HD
ENDBRANCH   2  13
TORSDOF 3
ENDMDL
