MODEL 1
REMARK VINA RESULT:      -6.0      0.000      0.000
REMARK  Name = 71070
REMARK  8 active torsions:
REMARK  status: ('A' for Active; 'I' for Inactive)
REMARK    1  A    between atoms: CB_1  and  CG_2
REMARK    2  A    between atoms: CB_1  and  CA_12
REMARK    3  A    between atoms: CG_2  and  CD_3
REMARK    4  A    between atoms: CD_3  and  NE_4
REMARK    5  A    between atoms: NE_4  and  CZ_7
REMARK    6  A    between atoms: CA_12  and  N_13
REMARK    7  A    between atoms: CA_12  and  C_18
REMARK    8  A    between atoms: C_18  and  O_19
REMARK                            x       y       z     vdW  Elec       q    Type
REMARK                         _______ _______ _______ _____ _____    ______ ____
ROOT
ATOM      1  CB  ARG A   1      38.479 -25.377 -12.961  0.00  0.00    -0.009 C 
ENDROOT
BRANCH   1   2
ATOM      2  CG  ARG A   1      37.077 -25.792 -12.489  0.00  0.00    +0.025 C 
BRANCH   2   3
ATOM      3  CD  ARG A   1      36.396 -24.706 -11.663  0.00  0.00    +0.129 C 
BRANCH   3   4
ATOM      4  NE  ARG A   1      34.956 -24.707 -11.927  0.00  0.00    -0.240 NA
BRANCH   4   7
ATOM      5  NH1 ARG A   1      33.554 -24.860 -13.766  0.00  0.00    -0.370 N 
ATOM      6  NH2 ARG A   1      35.072 -23.160 -13.761  0.00  0.00    -0.370 N 
ATOM      7  CZ  ARG A   1      34.574 -24.248 -13.078  0.00  0.00    +0.189 C 
ATOM      8 HH11 ARG A   1      33.109 -25.653 -13.386  0.00  0.00    +0.159 HD
ATOM      9 HH12 ARG A   1      33.267 -24.507 -14.639  0.00  0.00    +0.159 HD
ATOM     10 HH21 ARG A   1      35.808 -22.631 -13.376  0.00  0.00    +0.159 HD
ATOM     11 HH22 ARG A   1      34.691 -22.912 -14.635  0.00  0.00    +0.159 HD
ENDBRANCH   4   7
ENDBRANCH   3   4
ENDBRANCH   2   3
ENDBRANCH   1   2
BRANCH   1  12
ATOM     12  CA  ARG A   1      38.828 -25.973 -14.333  0.00  0.00    +0.036 C 
BRANCH  12  13
ATOM     13  N   ARG A   1      37.819 -25.574 -15.312  0.00  0.00    +0.389 N 
ATOM     14  H1  ARG A   1      37.004 -25.198 -14.827  0.00  0.00    -0.088 HD
ATOM     15  H2  ARG A   1      37.541 -26.386 -15.863  0.00  0.00    -0.088 HD
ATOM     16  H3  ARG A   1      38.207 -24.861 -15.929  0.00  0.00    -0.088 HD
ENDBRANCH  12  13
BRANCH  12  18
ATOM     17  OXT ARG A   1      40.916 -24.720 -14.260  0.00  0.00    -0.253 OA
ATOM     18  C   ARG A   1      40.154 -25.461 -14.865  0.00  0.00    +0.293 C 
BRANCH  18  19
ATOM     19  O   ARG A   1      40.429 -25.946 -16.105  0.00  0.00    -0.482 OA
ATOM     20  H   ARG A   1      41.307 -26.184 -16.331  0.00  0.00    +0.295 HD
ENDBRANCH  18  19
ENDBRANCH  12  18
ENDBRANCH   1  12
TORSDOF 8
ENDMDL
MODEL 2
REMARK VINA RESULT:      -5.8      3.201      4.316
REMARK  Name = 71070
REMARK  8 active torsions:
REMARK  status: ('A' for Active; 'I' for Inactive)
REMARK    1  A    between atoms: CB_1  and  CG_2
REMARK    2  A    between atoms: CB_1  and  CA_12
REMARK    3  A    between atoms: CG_2  and  CD_3
REMARK    4  A    between atoms: CD_3  and  NE_4
REMARK    5  A    between atoms: NE_4  and  CZ_7
REMARK    6  A    between atoms: CA_12  and  N_13
REMARK    7  A    between atoms: CA_12  and  C_18
REMARK    8  A    between atoms: C_18  and  O_19
REMARK                            x       y       z     vdW  Elec       q    Type
REMARK                         _______ _______ _______ _____ _____    ______ ____
ROOT
ATOM      1  CB  ARG A   1      37.853 -25.324 -12.113  0.00  0.00    -0.009 C 
ENDROOT
BRANCH   1   2
ATOM      2  CG  ARG A   1      38.836 -24.997 -13.248  0.00  0.00    +0.025 C 
BRANCH   2   3
ATOM      3  CD  ARG A   1      38.441 -25.657 -14.565  0.00  0.00    +0.129 C 
BRANCH   3   4
ATOM      4  NE  ARG A   1      37.253 -25.002 -15.114  0.00  0.00    -0.240 NA
BRANCH   4   7
ATOM      5  NH1 ARG A   1      36.085 -26.996 -15.289  0.00  0.00    -0.370 N 
ATOM      6  NH2 ARG A   1      34.898 -25.153 -14.666  0.00  0.00    -0.370 N 
ATOM      7  CZ  ARG A   1      36.133 -25.649 -15.020  0.00  0.00    +0.189 C 
ATOM      8 HH11 ARG A   1      36.904 -27.475 -15.554  0.00  0.00    +0.159 HD
ATOM      9 HH12 ARG A   1      35.233 -27.482 -15.215  0.00  0.00    +0.159 HD
ATOM     10 HH21 ARG A   1      34.795 -24.199 -14.448  0.00  0.00    +0.159 HD
ATOM     11 HH22 ARG A   1      34.119 -25.753 -14.632  0.00  0.00    +0.159 HD
ENDBRANCH   4   7
ENDBRANCH   3   4
ENDBRANCH   2   3
ENDBRANCH   1   2
BRANCH   1  12
ATOM     12  CA  ARG A   1      37.127 -24.072 -11.597  0.00  0.00    +0.036 C 
BRANCH  12  13
ATOM     13  N   ARG A   1      37.106 -23.052 -12.643  0.00  0.00    +0.389 N 
ATOM     14  H1  ARG A   1      36.795 -23.470 -13.521  0.00  0.00    -0.088 HD
ATOM     15  H2  ARG A   1      38.043 -22.669 -12.764  0.00  0.00    -0.088 HD
ATOM     16  H3  ARG A   1      36.465 -22.305 -12.377  0.00  0.00    -0.088 HD
ENDBRANCH  12  13
BRANCH  12  18
ATOM     17  OXT ARG A   1      35.293 -25.109 -10.374  0.00  0.00    -0.253 OA
ATOM     18  C   ARG A   1      35.675 -24.347 -11.251  0.00  0.00    +0.293 C 
BRANCH  18  19
ATOM     19  O   ARG A   1      34.820 -23.619 -12.017  0.00  0.00    -0.482 OA
ATOM     20  H   ARG A   1      34.663 -23.866 -12.907  0.00  0.00    +0.295 HD
ENDBRANCH  18  19
ENDBRANCH  12  18
ENDBRANCH   1  12
TORSDOF 8
ENDMDL
MODEL 3
REMARK VINA RESULT:      -5.8      3.031      4.944
REMARK  Name = 71070
REMARK  8 active torsions:
REMARK  status: ('A' for Active; 'I' for Inactive)
REMARK    1  A    between atoms: CB_1  and  CG_2
REMARK    2  A    between atoms: CB_1  and  CA_12
REMARK    3  A    between atoms: CG_2  and  CD_3
REMARK    4  A    between atoms: CD_3  and  NE_4
REMARK    5  A    between atoms: NE_4  and  CZ_7
REMARK    6  A    between atoms: CA_12  and  N_13
REMARK    7  A    between atoms: CA_12  and  C_18
REMARK    8  A    between atoms: C_18  and  O_19
REMARK                            x       y       z     vdW  Elec       q    Type
REMARK                         _______ _______ _______ _____ _____    ______ ____
ROOT
ATOM      1  CB  ARG A   1      36.938 -23.208 -12.802  0.00  0.00    -0.009 C 
ENDROOT
BRANCH   1   2
ATOM      2  CG  ARG A   1      36.774 -23.254 -14.329  0.00  0.00    +0.025 C 
BRANCH   2   3
ATOM      3  CD  ARG A   1      37.889 -24.041 -15.010  0.00  0.00    +0.129 C 
BRANCH   3   4
ATOM      4  NE  ARG A   1      38.784 -24.611 -14.001  0.00  0.00    -0.240 NA
BRANCH   4   7
ATOM      5  NH1 ARG A   1      38.179 -26.830 -14.293  0.00  0.00    -0.370 N 
ATOM      6  NH2 ARG A   1      40.410 -26.364 -14.231  0.00  0.00    -0.370 N 
ATOM      7  CZ  ARG A   1      39.134 -25.849 -14.164  0.00  0.00    +0.189 C 
ATOM      8 HH11 ARG A   1      37.224 -26.594 -14.262  0.00  0.00    +0.159 HD
ATOM      9 HH12 ARG A   1      38.451 -27.768 -14.416  0.00  0.00    +0.159 HD
ATOM     10 HH21 ARG A   1      41.187 -25.765 -14.152  0.00  0.00    +0.159 HD
ATOM     11 HH22 ARG A   1      40.543 -27.331 -14.358  0.00  0.00    +0.159 HD
ENDBRANCH   4   7
ENDBRANCH   3   4
ENDBRANCH   2   3
ENDBRANCH   1   2
BRANCH   1  12
ATOM     12  CA  ARG A   1      35.635 -23.564 -12.070  0.00  0.00    +0.036 C 
BRANCH  12  13
ATOM     13  N   ARG A   1      34.565 -23.768 -13.043  0.00  0.00    +0.389 N 
ATOM     14  H1  ARG A   1      34.067 -24.632 -12.826  0.00  0.00    -0.088 HD
ATOM     15  H2  ARG A   1      34.964 -23.833 -13.979  0.00  0.00    -0.088 HD
ATOM     16  H3  ARG A   1      33.915 -22.983 -13.004  0.00  0.00    -0.088 HD
ENDBRANCH  12  13
BRANCH  12  18
ATOM     17  OXT ARG A   1      35.261 -25.064 -10.186  0.00  0.00    -0.253 OA
ATOM     18  C   ARG A   1      35.746 -24.862 -11.291  0.00  0.00    +0.293 C 
BRANCH  18  19
ATOM     19  O   ARG A   1      36.434 -25.813 -11.977  0.00  0.00    -0.482 OA
ATOM     20  H   ARG A   1      36.209 -26.004 -12.867  0.00  0.00    +0.295 HD
ENDBRANCH  18  19
ENDBRANCH  12  18
ENDBRANCH   1  12
TORSDOF 8
ENDMDL
MODEL 4
REMARK VINA RESULT:      -5.7      6.738      8.508
REMARK  Name = 71070
REMARK  8 active torsions:
REMARK  status: ('A' for Active; 'I' for Inactive)
REMARK    1  A    between atoms: CB_1  and  CG_2
REMARK    2  A    between atoms: CB_1  and  CA_12
REMARK    3  A    between atoms: CG_2  and  CD_3
REMARK    4  A    between atoms: CD_3  and  NE_4
REMARK    5  A    between atoms: NE_4  and  CZ_7
REMARK    6  A    between atoms: CA_12  and  N_13
REMARK    7  A    between atoms: CA_12  and  C_18
REMARK    8  A    between atoms: C_18  and  O_19
REMARK                            x       y       z     vdW  Elec       q    Type
REMARK                         _______ _______ _______ _____ _____    ______ ____
ROOT
ATOM      1  CB  ARG A   1      29.771 -24.719 -15.968  0.00  0.00    -0.009 C 
ENDROOT
BRANCH   1   2
ATOM      2  CG  ARG A   1      29.689 -25.170 -14.501  0.00  0.00    +0.025 C 
BRANCH   2   3
ATOM      3  CD  ARG A   1      30.576 -24.333 -13.586  0.00  0.00    +0.129 C 
BRANCH   3   4
ATOM      4  NE  ARG A   1      31.882 -24.977 -13.432  0.00  0.00    -0.240 NA
BRANCH   4   7
ATOM      5  NH1 ARG A   1      34.181 -24.823 -13.683  0.00  0.00    -0.370 N 
ATOM      6  NH2 ARG A   1      32.948 -23.004 -14.291  0.00  0.00    -0.370 N 
ATOM      7  CZ  ARG A   1      32.920 -24.286 -13.788  0.00  0.00    +0.189 C 
ATOM      8 HH11 ARG A   1      34.300 -25.736 -13.336  0.00  0.00    +0.159 HD
ATOM      9 HH12 ARG A   1      34.965 -24.293 -13.955  0.00  0.00    +0.159 HD
ATOM     10 HH21 ARG A   1      32.109 -22.505 -14.417  0.00  0.00    +0.159 HD
ATOM     11 HH22 ARG A   1      33.809 -22.587 -14.526  0.00  0.00    +0.159 HD
ENDBRANCH   4   7
ENDBRANCH   3   4
ENDBRANCH   2   3
ENDBRANCH   1   2
BRANCH   1  12
ATOM     12  CA  ARG A   1      29.557 -23.205 -16.120  0.00  0.00    +0.036 C 
BRANCH  12  13
ATOM     13  N   ARG A   1      30.645 -22.633 -16.909  0.00  0.00    +0.389 N 
ATOM     14  H1  ARG A   1      31.446 -22.452 -16.303  0.00  0.00    -0.088 HD
ATOM     15  H2  ARG A   1      30.335 -21.758 -17.332  0.00  0.00    -0.088 HD
ATOM     16  H3  ARG A   1      30.915 -23.288 -17.642  0.00  0.00    -0.088 HD
ENDBRANCH  12  13
BRANCH  12  18
ATOM     17  OXT ARG A   1      27.771 -21.763 -16.940  0.00  0.00    -0.253 OA
ATOM     18  C   ARG A   1      28.278 -22.875 -16.868  0.00  0.00    +0.293 C 
BRANCH  18  19
ATOM     19  O   ARG A   1      27.754 -23.964 -17.492  0.00  0.00    -0.482 OA
ATOM     20  H   ARG A   1      27.670 -23.974 -18.425  0.00  0.00    +0.295 HD
ENDBRANCH  18  19
ENDBRANCH  12  18
ENDBRANCH   1  12
TORSDOF 8
ENDMDL
MODEL 5
REMARK VINA RESULT:      -5.7      1.652      2.241
REMARK  Name = 71070
REMARK  8 active torsions:
REMARK  status: ('A' for Active; 'I' for Inactive)
REMARK    1  A    between atoms: CB_1  and  CG_2
REMARK    2  A    between atoms: CB_1  and  CA_12
REMARK    3  A    between atoms: CG_2  and  CD_3
REMARK    4  A    between atoms: CD_3  and  NE_4
REMARK    5  A    between atoms: NE_4  and  CZ_7
REMARK    6  A    between atoms: CA_12  and  N_13
REMARK    7  A    between atoms: CA_12  and  C_18
REMARK    8  A    between atoms: C_18  and  O_19
REMARK                            x       y       z     vdW  Elec       q    Type
REMARK                         _______ _______ _______ _____ _____    ______ ____
ROOT
ATOM      1  CB  ARG A   1      38.373 -24.441 -14.919  0.00  0.00    -0.009 C 
ENDROOT
BRANCH   1   2
ATOM      2  CG  ARG A   1      36.845 -24.577 -15.012  0.00  0.00    +0.025 C 
BRANCH   2   3
ATOM      3  CD  ARG A   1      36.124 -23.777 -13.932  0.00  0.00    +0.129 C 
BRANCH   3   4
ATOM      4  NE  ARG A   1      35.886 -24.622 -12.762  0.00  0.00    -0.240 NA
BRANCH   4   7
ATOM      5  NH1 ARG A   1      35.634 -24.350 -10.473  0.00  0.00    -0.370 N 
ATOM      6  NH2 ARG A   1      37.570 -23.583 -11.400  0.00  0.00    -0.370 N 
ATOM      7  CZ  ARG A   1      36.361 -24.201 -11.631  0.00  0.00    +0.189 C 
ATOM      8 HH11 ARG A   1      34.748 -24.779 -10.500  0.00  0.00    +0.159 HD
ATOM      9 HH12 ARG A   1      36.000 -24.029  -9.618  0.00  0.00    +0.159 HD
ATOM     10 HH21 ARG A   1      38.188 -23.416 -12.148  0.00  0.00    +0.159 HD
ATOM     11 HH22 ARG A   1      37.816 -23.310 -10.487  0.00  0.00    +0.159 HD
ENDBRANCH   4   7
ENDBRANCH   3   4
ENDBRANCH   2   3
ENDBRANCH   1   2
BRANCH   1  12
ATOM     12  CA  ARG A   1      39.007 -25.583 -14.111  0.00  0.00    +0.036 C 
BRANCH  12  13
ATOM     13  N   ARG A   1      38.111 -26.737 -14.107  0.00  0.00    +0.389 N 
ATOM     14  H1  ARG A   1      38.350 -27.357 -14.882  0.00  0.00    -0.088 HD
ATOM     15  H2  ARG A   1      37.148 -26.420 -14.210  0.00  0.00    -0.088 HD
ATOM     16  H3  ARG A   1      38.210 -27.242 -13.226  0.00  0.00    -0.088 HD
ENDBRANCH  12  13
BRANCH  12  18
ATOM     17  OXT ARG A   1      41.215 -26.614 -14.104  0.00  0.00    -0.253 OA
ATOM     18  C   ARG A   1      40.311 -26.067 -14.720  0.00  0.00    +0.293 C 
BRANCH  18  19
ATOM     19  O   ARG A   1      40.361 -25.850 -16.061  0.00  0.00    -0.482 OA
ATOM     20  H   ARG A   1      39.576 -25.647 -16.532  0.00  0.00    +0.295 HD
ENDBRANCH  18  19
ENDBRANCH  12  18
ENDBRANCH   1  12
TORSDOF 8
ENDMDL
MODEL 6
REMARK VINA RESULT:      -5.5     11.493     12.404
REMARK  Name = 71070
REMARK  8 active torsions:
REMARK  status: ('A' for Active; 'I' for Inactive)
REMARK    1  A    between atoms: CB_1  and  CG_2
REMARK    2  A    between atoms: CB_1  and  CA_12
REMARK    3  A    between atoms: CG_2  and  CD_3
REMARK    4  A    between atoms: CD_3  and  NE_4
REMARK    5  A    between atoms: NE_4  and  CZ_7
REMARK    6  A    between atoms: CA_12  and  N_13
REMARK    7  A    between atoms: CA_12  and  C_18
REMARK    8  A    between atoms: C_18  and  O_19
REMARK                            x       y       z     vdW  Elec       q    Type
REMARK                         _______ _______ _______ _____ _____    ______ ____
ROOT
ATOM      1  CB  ARG A   1      34.604 -19.195 -23.078  0.00  0.00    -0.009 C 
ENDROOT
BRANCH   1   2
ATOM      2  CG  ARG A   1      35.441 -18.133 -23.806  0.00  0.00    +0.025 C 
BRANCH   2   3
ATOM      3  CD  ARG A   1      34.625 -16.896 -24.166  0.00  0.00    +0.129 C 
BRANCH   3   4
ATOM      4  NE  ARG A   1      35.167 -15.724 -23.477  0.00  0.00    -0.240 NA
BRANCH   4   7
ATOM      5  NH1 ARG A   1      33.298 -15.298 -22.173  0.00  0.00    -0.370 N 
ATOM      6  NH2 ARG A   1      34.253 -13.516 -23.227  0.00  0.00    -0.370 N 
ATOM      7  CZ  ARG A   1      34.308 -14.875 -23.004  0.00  0.00    +0.189 C 
ATOM      8 HH11 ARG A   1      33.224 -16.250 -21.933  0.00  0.00    +0.159 HD
ATOM      9 HH12 ARG A   1      32.649 -14.649 -21.818  0.00  0.00    +0.159 HD
ATOM     10 HH21 ARG A   1      34.922 -13.085 -23.807  0.00  0.00    +0.159 HD
ATOM     11 HH22 ARG A   1      33.545 -12.978 -22.806  0.00  0.00    +0.159 HD
ENDBRANCH   4   7
ENDBRANCH   3   4
ENDBRANCH   2   3
ENDBRANCH   1   2
BRANCH   1  12
ATOM     12  CA  ARG A   1      34.246 -18.769 -21.646  0.00  0.00    +0.036 C 
BRANCH  12  13
ATOM     13  N   ARG A   1      33.722 -19.917 -20.909  0.00  0.00    +0.389 N 
ATOM     14  H1  ARG A   1      33.089 -19.592 -20.178  0.00  0.00    -0.088 HD
ATOM     15  H2  ARG A   1      34.495 -20.430 -20.485  0.00  0.00    -0.088 HD
ATOM     16  H3  ARG A   1      33.217 -20.530 -21.549  0.00  0.00    -0.088 HD
ENDBRANCH  12  13
BRANCH  12  18
ATOM     17  OXT ARG A   1      36.432 -18.972 -20.588  0.00  0.00    -0.253 OA
ATOM     18  C   ARG A   1      35.457 -18.288 -20.867  0.00  0.00    +0.293 C 
BRANCH  18  19
ATOM     19  O   ARG A   1      35.357 -16.976 -20.524  0.00  0.00    -0.482 OA
ATOM     20  H   ARG A   1      34.667 -16.451 -20.880  0.00  0.00    +0.295 HD
ENDBRANCH  18  19
ENDBRANCH  12  18
ENDBRANCH   1  12
TORSDOF 8
ENDMDL
MODEL 7
REMARK VINA RESULT:      -5.5     12.859     13.742
REMARK  Name = 71070
REMARK  8 active torsions:
REMARK  status: ('A' for Active; 'I' for Inactive)
REMARK    1  A    between atoms: CB_1  and  CG_2
REMARK    2  A    between atoms: CB_1  and  CA_12
REMARK    3  A    between atoms: CG_2  and  CD_3
REMARK    4  A    between atoms: CD_3  and  NE_4
REMARK    5  A    between atoms: NE_4  and  CZ_7
REMARK    6  A    between atoms: CA_12  and  N_13
REMARK    7  A    between atoms: CA_12  and  C_18
REMARK    8  A    between atoms: C_18  and  O_19
REMARK                            x       y       z     vdW  Elec       q    Type
REMARK                         _______ _______ _______ _____ _____    ______ ____
ROOT
ATOM      1  CB  ARG A   1      35.427 -18.362 -23.118  0.00  0.00    -0.009 C 
ENDROOT
BRANCH   1   2
ATOM      2  CG  ARG A   1      34.632 -18.151 -24.416  0.00  0.00    +0.025 C 
BRANCH   2   3
ATOM      3  CD  ARG A   1      34.955 -16.819 -25.084  0.00  0.00    +0.129 C 
BRANCH   3   4
ATOM      4  NE  ARG A   1      33.844 -16.412 -25.947  0.00  0.00    -0.240 NA
BRANCH   4   7
ATOM      5  NH1 ARG A   1      33.552 -14.634 -24.489  0.00  0.00    -0.370 N 
ATOM      6  NH2 ARG A   1      32.363 -14.584 -26.434  0.00  0.00    -0.370 N 
ATOM      7  CZ  ARG A   1      33.273 -15.281 -25.669  0.00  0.00    +0.189 C 
ATOM      8 HH11 ARG A   1      34.189 -15.027 -23.849  0.00  0.00    +0.159 HD
ATOM      9 HH12 ARG A   1      33.115 -13.776 -24.284  0.00  0.00    +0.159 HD
ATOM     10 HH21 ARG A   1      32.078 -14.940 -27.305  0.00  0.00    +0.159 HD
ATOM     11 HH22 ARG A   1      32.000 -13.729 -26.107  0.00  0.00    +0.159 HD
ENDBRANCH   4   7
ENDBRANCH   3   4
ENDBRANCH   2   3
ENDBRANCH   1   2
BRANCH   1  12
ATOM     12  CA  ARG A   1      34.536 -18.257 -21.870  0.00  0.00    +0.036 C 
BRANCH  12  13
ATOM     13  N   ARG A   1      35.147 -18.998 -20.769  0.00  0.00    +0.389 N 
ATOM     14  H1  ARG A   1      35.700 -19.770 -21.143  0.00  0.00    -0.088 HD
ATOM     15  H2  ARG A   1      34.416 -19.368 -20.161  0.00  0.00    -0.088 HD
ATOM     16  H3  ARG A   1      35.751 -18.375 -20.233  0.00  0.00    -0.088 HD
ENDBRANCH  12  13
BRANCH  12  18
ATOM     17  OXT ARG A   1      33.616 -16.001 -21.848  0.00  0.00    -0.253 OA
ATOM     18  C   ARG A   1      34.390 -16.828 -21.383  0.00  0.00    +0.293 C 
BRANCH  18  19
ATOM     19  O   ARG A   1      35.208 -16.559 -20.331  0.00  0.00    -0.482 OA
ATOM     20  H   ARG A   1      34.843 -16.279 -19.514  0.00  0.00    +0.295 HD
ENDBRANCH  18  19
ENDBRANCH  12  18
ENDBRANCH   1  12
TORSDOF 8
ENDMDL
MODEL 8
REMARK VINA RESULT:      -5.5     12.813     13.829
REMARK  Name = 71070
REMARK  8 active torsions:
REMARK  status: ('A' for Active; 'I' for Inactive)
REMARK    1  A    between atoms: CB_1  and  CG_2
REMARK    2  A    between atoms: CB_1  and  CA_12
REMARK    3  A    between atoms: CG_2  and  CD_3
REMARK    4  A    between atoms: CD_3  and  NE_4
REMARK    5  A    between atoms: NE_4  and  CZ_7
REMARK    6  A    between atoms: CA_12  and  N_13
REMARK    7  A    between atoms: CA_12  and  C_18
REMARK    8  A    between atoms: C_18  and  O_19
REMARK                            x       y       z     vdW  Elec       q    Type
REMARK                         _______ _______ _______ _____ _____    ______ ____
ROOT
ATOM      1  CB  ARG A   1      34.573 -14.764 -23.140  0.00  0.00    -0.009 C 
ENDROOT
BRANCH   1   2
ATOM      2  CG  ARG A   1      34.044 -14.861 -21.701  0.00  0.00    +0.025 C 
BRANCH   2   3
ATOM      3  CD  ARG A   1      34.694 -15.998 -20.919  0.00  0.00    +0.129 C 
BRANCH   3   4
ATOM      4  NE  ARG A   1      34.558 -17.254 -21.658  0.00  0.00    -0.240 NA
BRANCH   4   7
ATOM      5  NH1 ARG A   1      36.350 -18.151 -22.822  0.00  0.00    -0.370 N 
ATOM      6  NH2 ARG A   1      36.084 -18.816 -20.658  0.00  0.00    -0.370 N 
ATOM      7  CZ  ARG A   1      35.594 -18.033 -21.680  0.00  0.00    +0.189 C 
ATOM      8 HH11 ARG A   1      36.107 -17.643 -23.629  0.00  0.00    +0.159 HD
ATOM      9 HH12 ARG A   1      37.136 -18.745 -22.833  0.00  0.00    +0.159 HD
ATOM     10 HH21 ARG A   1      35.633 -18.823 -19.783  0.00  0.00    +0.159 HD
ATOM     11 HH22 ARG A   1      36.886 -19.368 -20.803  0.00  0.00    +0.159 HD
ENDBRANCH   4   7
ENDBRANCH   3   4
ENDBRANCH   2   3
ENDBRANCH   1   2
BRANCH   1  12
ATOM     12  CA  ARG A   1      33.455 -14.931 -24.181  0.00  0.00    +0.036 C 
BRANCH  12  13
ATOM     13  N   ARG A   1      33.181 -13.644 -24.816  0.00  0.00    +0.389 N 
ATOM     14  H1  ARG A   1      32.173 -13.522 -24.918  0.00  0.00    -0.088 HD
ATOM     15  H2  ARG A   1      33.621 -13.618 -25.736  0.00  0.00    -0.088 HD
ATOM     16  H3  ARG A   1      33.558 -12.892 -24.239  0.00  0.00    -0.088 HD
ENDBRANCH  12  13
BRANCH  12  18
ATOM     17  OXT ARG A   1      33.513 -15.755 -26.473  0.00  0.00    -0.253 OA
ATOM     18  C   ARG A   1      33.844 -15.877 -25.301  0.00  0.00    +0.293 C 
BRANCH  18  19
ATOM     19  O   ARG A   1      34.642 -16.887 -24.864  0.00  0.00    -0.482 OA
ATOM     20  H   ARG A   1      35.457 -17.060 -25.294  0.00  0.00    +0.295 HD
ENDBRANCH  18  19
ENDBRANCH  12  18
ENDBRANCH   1  12
TORSDOF 8
ENDMDL
MODEL 9
REMARK VINA RESULT:      -5.5      6.284      8.129
REMARK  Name = 71070
REMARK  8 active torsions:
REMARK  status: ('A' for Active; 'I' for Inactive)
REMARK    1  A    between atoms: CB_1  and  CG_2
REMARK    2  A    between atoms: CB_1  and  CA_12
REMARK    3  A    between atoms: CG_2  and  CD_3
REMARK    4  A    between atoms: CD_3  and  NE_4
REMARK    5  A    between atoms: NE_4  and  CZ_7
REMARK    6  A    between atoms: CA_12  and  N_13
REMARK    7  A    between atoms: CA_12  and  C_18
REMARK    8  A    between atoms: C_18  and  O_19
REMARK                            x       y       z     vdW  Elec       q    Type
REMARK                         _______ _______ _______ _____ _____    ______ ____
ROOT
ATOM      1  CB  ARG A   1      30.364 -22.968 -14.972  0.00  0.00    -0.009 C 
ENDROOT
BRANCH   1   2
ATOM      2  CG  ARG A   1      31.862 -23.301 -14.899  0.00  0.00    +0.025 C 
BRANCH   2   3
ATOM      3  CD  ARG A   1      32.148 -24.494 -13.993  0.00  0.00    +0.129 C 
BRANCH   3   4
ATOM      4  NE  ARG A   1      33.319 -24.216 -13.159  0.00  0.00    -0.240 NA
BRANCH   4   7
ATOM      5  NH1 ARG A   1      34.940 -25.216 -14.481  0.00  0.00    -0.370 N 
ATOM      6  NH2 ARG A   1      35.334 -23.076 -13.802  0.00  0.00    -0.370 N 
ATOM      7  CZ  ARG A   1      34.463 -24.144 -13.766  0.00  0.00    +0.189 C 
ATOM      8 HH11 ARG A   1      34.412 -26.046 -14.536  0.00  0.00    +0.159 HD
ATOM      9 HH12 ARG A   1      35.809 -25.155 -14.940  0.00  0.00    +0.159 HD
ATOM     10 HH21 ARG A   1      35.110 -22.243 -13.329  0.00  0.00    +0.159 HD
ATOM     11 HH22 ARG A   1      36.178 -23.148 -14.303  0.00  0.00    +0.159 HD
ENDBRANCH   4   7
ENDBRANCH   3   4
ENDBRANCH   2   3
ENDBRANCH   1   2
BRANCH   1  12
ATOM     12  CA  ARG A   1      29.600 -23.937 -15.888  0.00  0.00    +0.036 C 
BRANCH  12  13
ATOM     13  N   ARG A   1      28.789 -24.842 -15.078  0.00  0.00    +0.389 N 
ATOM     14  H1  ARG A   1      29.398 -25.498 -14.587  0.00  0.00    -0.088 HD
ATOM     15  H2  ARG A   1      28.150 -25.359 -15.681  0.00  0.00    -0.088 HD
ATOM     16  H3  ARG A   1      28.253 -24.303 -14.398  0.00  0.00    -0.088 HD
ENDBRANCH  12  13
BRANCH  12  18
ATOM     17  OXT ARG A   1      28.607 -22.010 -17.002  0.00  0.00    -0.253 OA
ATOM     18  C   ARG A   1      28.631 -23.218 -16.809  0.00  0.00    +0.293 C 
BRANCH  18  19
ATOM     19  O   ARG A   1      27.787 -24.080 -17.437  0.00  0.00    -0.482 OA
ATOM     20  H   ARG A   1      28.084 -24.936 -17.675  0.00  0.00    +0.295 HD
ENDBRANCH  18  19
ENDBRANCH  12  18
ENDBRANCH   1  12
TORSDOF 8
ENDMDL
