MODEL 1
REMARK VINA RESULT:     -11.4      0.000      0.000
REMARK  Name = 8969
REMARK  3 active torsions:
REMARK  status: ('A' for Active; 'I' for Inactive)
REMARK    1  A    between atoms: C_7  and  C_27
REMARK    2  A    between atoms: C_10  and  O_24
REMARK    3  A    between atoms: C_27  and  O_28
REMARK                            x       y       z     vdW  Elec       q    Type
REMARK                         _______ _______ _______ _____ _____    ______ ____
ROOT
ATOM      1  N   UNL     1      34.174 -23.090 -16.404  0.00  0.00    +0.392 N 
ATOM      2  N   UNL     1      32.961 -21.565 -19.600  0.00  0.00    -0.358 N 
ATOM      3  C   UNL     1      31.354 -23.732 -15.946  0.00  0.00    +0.009 C 
ATOM      4  C   UNL     1      32.420 -23.805 -14.831  0.00  0.00    -0.020 C 
ATOM      5  C   UNL     1      31.804 -22.712 -17.009  0.00  0.00    -0.015 C 
ATOM      6  C   UNL     1      33.206 -23.060 -17.536  0.00  0.00    -0.019 C 
ATOM      7  C   UNL     1      29.978 -23.396 -15.340  0.00  0.00    +0.126 C 
ATOM      8  C   UNL     1      33.806 -24.115 -15.420  0.00  0.00    -0.077 C 
ATOM      9  C   UNL     1      32.029 -24.827 -13.758  0.00  0.00    +0.000 C 
ATOM     10  C   UNL     1      29.576 -24.409 -14.253  0.00  0.00    +0.121 C 
ATOM     11  C   UNL     1      30.651 -24.511 -13.169  0.00  0.00    +0.030 C 
ATOM     12  C   UNL     1      33.690 -22.090 -18.570  0.00  0.00    +0.010 A 
ATOM     13  C   UNL     1      35.565 -23.264 -16.874  0.00  0.00    -0.072 C 
ATOM     14  C   UNL     1      34.987 -21.634 -18.680  0.00  0.00    -0.013 A 
ATOM     15  C   UNL     1      36.033 -22.046 -17.705  0.00  0.00    +0.005 C 
ATOM     16  C   UNL     1      35.046 -20.767 -19.804  0.00  0.00    +0.013 A 
ATOM     17  C   UNL     1      33.763 -20.741 -20.363  0.00  0.00    +0.056 A 
ATOM     18  C   UNL     1      36.064 -20.003 -20.408  0.00  0.00    +0.001 C 
ATOM     19  C   UNL     1      33.452 -19.986 -21.500  0.00  0.00    +0.017 C 
ATOM     20  C   UNL     1      35.764 -19.241 -21.545  0.00  0.00    +0.000 C 
ATOM     21  C   UNL     1      34.479 -19.235 -22.080  0.00  0.00    +0.001 C 
ATOM     22  H   UNL     1      34.128 -22.182 -15.941  0.00  0.00    -0.079 HD
ATOM     23  H   UNL     1      32.009 -21.745 -19.771  0.00  0.00    +0.166 HD
ENDROOT
BRANCH  10  24
ATOM     24  O   UNL     1      29.394 -25.698 -14.841  0.00  0.00    -0.384 OA
ATOM     25  H   UNL     1      30.238 -26.013 -15.201  0.00  0.00    +0.210 HD
ENDBRANCH  10  24
BRANCH   7  27
ATOM     26  O   UNL     1      28.622 -24.318 -17.108  0.00  0.00    -0.250 OA
ATOM     27  C   UNL     1      28.907 -23.366 -16.393  0.00  0.00    +0.319 C 
BRANCH  27  28
ATOM     28  O   UNL     1      28.324 -22.134 -16.415  0.00  0.00    -0.444 OA
ATOM     29  C   UNL     1      26.953 -22.094 -16.007  0.00  0.00    +0.256 C 
ENDBRANCH  27  28
ENDBRANCH   7  27
TORSDOF 3
ENDMDL
MODEL 2
REMARK VINA RESULT:      -9.2     11.091     14.129
REMARK  Name = 8969
REMARK  3 active torsions:
REMARK  status: ('A' for Active; 'I' for Inactive)
REMARK    1  A    between atoms: C_7  and  C_27
REMARK    2  A    between atoms: C_10  and  O_24
REMARK    3  A    between atoms: C_27  and  O_28
REMARK                            x       y       z     vdW  Elec       q    Type
REMARK                         _______ _______ _______ _____ _____    ______ ____
ROOT
ATOM      1  N   UNL     1      32.287 -11.397 -20.744  0.00  0.00    +0.392 N 
ATOM      2  N   UNL     1      32.707 -12.694 -24.230  0.00  0.00    -0.358 N 
ATOM      3  C   UNL     1      31.985  -8.785 -22.033  0.00  0.00    +0.009 C 
ATOM      4  C   UNL     1      32.236  -8.946 -20.517  0.00  0.00    -0.020 C 
ATOM      5  C   UNL     1      32.562 -10.006 -22.773  0.00  0.00    -0.015 C 
ATOM      6  C   UNL     1      31.984 -11.311 -22.200  0.00  0.00    -0.019 C 
ATOM      7  C   UNL     1      32.576  -7.451 -22.528  0.00  0.00    +0.126 C 
ATOM      8  C   UNL     1      31.674 -10.284 -20.009  0.00  0.00    -0.077 C 
ATOM      9  C   UNL     1      31.657  -7.763 -19.732  0.00  0.00    +0.000 C 
ATOM     10  C   UNL     1      32.011  -6.256 -21.741  0.00  0.00    +0.121 C 
ATOM     11  C   UNL     1      32.225  -6.434 -20.237  0.00  0.00    +0.030 C 
ATOM     12  C   UNL     1      32.522 -12.529 -22.887  0.00  0.00    +0.010 A 
ATOM     13  C   UNL     1      31.893 -12.704 -20.176  0.00  0.00    -0.072 C 
ATOM     14  C   UNL     1      32.847 -13.712 -22.256  0.00  0.00    -0.013 A 
ATOM     15  C   UNL     1      32.733 -13.854 -20.779  0.00  0.00    +0.005 C 
ATOM     16  C   UNL     1      33.280 -14.628 -23.253  0.00  0.00    +0.013 A 
ATOM     17  C   UNL     1      33.183 -13.964 -24.481  0.00  0.00    +0.056 A 
ATOM     18  C   UNL     1      33.741 -15.959 -23.236  0.00  0.00    +0.001 C 
ATOM     19  C   UNL     1      33.526 -14.572 -25.695  0.00  0.00    +0.017 C 
ATOM     20  C   UNL     1      34.090 -16.577 -24.443  0.00  0.00    +0.000 C 
ATOM     21  C   UNL     1      33.983 -15.893 -25.652  0.00  0.00    +0.001 C 
ATOM     22  H   UNL     1      33.299 -11.320 -20.639  0.00  0.00    -0.079 HD
ATOM     23  H   UNL     1      32.530 -12.010 -24.916  0.00  0.00    +0.166 HD
ENDROOT
BRANCH  10  24
ATOM     24  O   UNL     1      30.611  -6.132 -21.994  0.00  0.00    -0.384 OA
ATOM     25  H   UNL     1      30.368  -6.688 -22.751  0.00  0.00    +0.210 HD
ENDBRANCH  10  24
BRANCH   7  27
ATOM     26  O   UNL     1      31.215  -7.415 -24.517  0.00  0.00    -0.250 OA
ATOM     27  C   UNL     1      32.306  -7.240 -23.990  0.00  0.00    +0.319 C 
BRANCH  27  28
ATOM     28  O   UNL     1      33.449  -6.831 -24.610  0.00  0.00    -0.444 OA
ATOM     29  C   UNL     1      34.669  -7.251 -23.991  0.00  0.00    +0.256 C 
ENDBRANCH  27  28
ENDBRANCH   7  27
TORSDOF 3
ENDMDL
MODEL 3
REMARK VINA RESULT:      -9.0     12.633     16.097
REMARK  Name = 8969
REMARK  3 active torsions:
REMARK  status: ('A' for Active; 'I' for Inactive)
REMARK    1  A    between atoms: C_7  and  C_27
REMARK    2  A    between atoms: C_10  and  O_24
REMARK    3  A    between atoms: C_27  and  O_28
REMARK                            x       y       z     vdW  Elec       q    Type
REMARK                         _______ _______ _______ _____ _____    ______ ____
ROOT
ATOM      1  N   UNL     1      31.745  -8.274 -21.899  0.00  0.00    +0.392 N 
ATOM      2  N   UNL     1      32.957  -6.375 -24.888  0.00  0.00    -0.358 N 
ATOM      3  C   UNL     1      32.927 -10.602 -23.226  0.00  0.00    +0.009 C 
ATOM      4  C   UNL     1      31.946 -10.724 -22.039  0.00  0.00    -0.020 C 
ATOM      5  C   UNL     1      32.659  -9.280 -23.968  0.00  0.00    -0.015 C 
ATOM      6  C   UNL     1      32.733  -8.088 -22.998  0.00  0.00    -0.019 C 
ATOM      7  C   UNL     1      32.806 -11.836 -24.141  0.00  0.00    +0.126 C 
ATOM      8  C   UNL     1      32.035  -9.490 -21.127  0.00  0.00    -0.077 C 
ATOM      9  C   UNL     1      32.189 -12.018 -21.252  0.00  0.00    +0.000 C 
ATOM     10  C   UNL     1      33.037 -13.142 -23.361  0.00  0.00    +0.121 C 
ATOM     11  C   UNL     1      32.093 -13.245 -22.162  0.00  0.00    +0.030 C 
ATOM     12  C   UNL     1      32.473  -6.777 -23.675  0.00  0.00    +0.010 A 
ATOM     13  C   UNL     1      31.663  -7.084 -21.025  0.00  0.00    -0.072 C 
ATOM     14  C   UNL     1      31.753  -5.736 -23.129  0.00  0.00    -0.013 A 
ATOM     15  C   UNL     1      31.108  -5.862 -21.794  0.00  0.00    +0.005 C 
ATOM     16  C   UNL     1      31.769  -4.663 -24.061  0.00  0.00    +0.013 A 
ATOM     17  C   UNL     1      32.531  -5.091 -25.155  0.00  0.00    +0.056 A 
ATOM     18  C   UNL     1      31.217  -3.368 -24.085  0.00  0.00    +0.001 C 
ATOM     19  C   UNL     1      32.765  -4.280 -26.272  0.00  0.00    +0.017 C 
ATOM     20  C   UNL     1      31.442  -2.548 -25.197  0.00  0.00    +0.000 C 
ATOM     21  C   UNL     1      32.204  -2.999 -26.272  0.00  0.00    +0.001 C 
ATOM     22  H   UNL     1      30.828  -8.391 -22.331  0.00  0.00    -0.079 HD
ATOM     23  H   UNL     1      33.522  -6.919 -25.482  0.00  0.00    +0.166 HD
ENDROOT
BRANCH  10  24
ATOM     24  O   UNL     1      34.385 -13.188 -22.889  0.00  0.00    -0.384 OA
ATOM     25  H   UNL     1      34.396 -13.065 -21.928  0.00  0.00    +0.210 HD
ENDBRANCH  10  24
BRANCH   7  27
ATOM     26  O   UNL     1      33.599 -12.298 -26.370  0.00  0.00    -0.250 OA
ATOM     27  C   UNL     1      33.783 -11.773 -25.280  0.00  0.00    +0.319 C 
BRANCH  27  28
ATOM     28  O   UNL     1      34.876 -11.051 -24.903  0.00  0.00    -0.444 OA
ATOM     29  C   UNL     1      35.551 -10.360 -25.959  0.00  0.00    +0.256 C 
ENDBRANCH  27  28
ENDBRANCH   7  27
TORSDOF 3
ENDMDL
MODEL 4
REMARK VINA RESULT:      -8.9     12.261     15.663
REMARK  Name = 8969
REMARK  3 active torsions:
REMARK  status: ('A' for Active; 'I' for Inactive)
REMARK    1  A    between atoms: C_7  and  C_27
REMARK    2  A    between atoms: C_10  and  O_24
REMARK    3  A    between atoms: C_27  and  O_28
REMARK                            x       y       z     vdW  Elec       q    Type
REMARK                         _______ _______ _______ _____ _____    ______ ____
ROOT
ATOM      1  N   UNL     1      31.865  -8.479 -21.688  0.00  0.00    +0.392 N 
ATOM      2  N   UNL     1      33.054  -6.738 -24.781  0.00  0.00    -0.358 N 
ATOM      3  C   UNL     1      32.931 -10.895 -22.954  0.00  0.00    +0.009 C 
ATOM      4  C   UNL     1      31.981 -10.938 -21.737  0.00  0.00    -0.020 C 
ATOM      5  C   UNL     1      32.686  -9.593 -23.740  0.00  0.00    -0.015 C 
ATOM      6  C   UNL     1      32.827  -8.369 -22.820  0.00  0.00    -0.019 C 
ATOM      7  C   UNL     1      32.744 -12.158 -23.816  0.00  0.00    +0.126 C 
ATOM      8  C   UNL     1      32.135  -9.673 -20.878  0.00  0.00    -0.077 C 
ATOM      9  C   UNL     1      32.202 -12.208 -20.907  0.00  0.00    +0.000 C 
ATOM     10  C   UNL     1      32.954 -13.441 -22.993  0.00  0.00    +0.121 C 
ATOM     11  C   UNL     1      32.041 -13.465 -21.766  0.00  0.00    +0.030 C 
ATOM     12  C   UNL     1      32.591  -7.077 -23.541  0.00  0.00    +0.010 A 
ATOM     13  C   UNL     1      31.846  -7.255 -20.860  0.00  0.00    -0.072 C 
ATOM     14  C   UNL     1      31.921  -5.991 -23.017  0.00  0.00    -0.013 A 
ATOM     15  C   UNL     1      31.310  -6.044 -21.661  0.00  0.00    +0.005 C 
ATOM     16  C   UNL     1      31.947  -4.956 -23.990  0.00  0.00    +0.013 A 
ATOM     17  C   UNL     1      32.663  -5.451 -25.086  0.00  0.00    +0.056 A 
ATOM     18  C   UNL     1      31.437  -3.645 -24.050  0.00  0.00    +0.001 C 
ATOM     19  C   UNL     1      32.893  -4.692 -26.241  0.00  0.00    +0.017 C 
ATOM     20  C   UNL     1      31.658  -2.877 -25.200  0.00  0.00    +0.000 C 
ATOM     21  C   UNL     1      32.375  -3.394 -26.276  0.00  0.00    +0.001 C 
ATOM     22  H   UNL     1      30.932  -8.581 -22.091  0.00  0.00    -0.079 HD
ATOM     23  H   UNL     1      33.584  -7.323 -25.368  0.00  0.00    +0.166 HD
ENDROOT
BRANCH  10  24
ATOM     24  O   UNL     1      34.312 -13.514 -22.556  0.00  0.00    -0.384 OA
ATOM     25  H   UNL     1      34.707 -14.345 -22.864  0.00  0.00    +0.210 HD
ENDBRANCH  10  24
BRANCH   7  27
ATOM     26  O   UNL     1      34.509 -11.291 -25.211  0.00  0.00    -0.250 OA
ATOM     27  C   UNL     1      33.690 -12.172 -24.983  0.00  0.00    +0.319 C 
BRANCH  27  28
ATOM     28  O   UNL     1      33.486 -13.298 -25.722  0.00  0.00    -0.444 OA
ATOM     29  C   UNL     1      33.347 -13.093 -27.131  0.00  0.00    +0.256 C 
ENDBRANCH  27  28
ENDBRANCH   7  27
TORSDOF 3
ENDMDL
