MODEL 1
REMARK VINA RESULT:      -9.0      0.000      0.000
REMARK  Name = 4057
REMARK  6 active torsions:
REMARK  status: ('A' for Active; 'I' for Inactive)
REMARK    1  A    between atoms: C_1  and  C_2
REMARK    2  A    between atoms: C_1  and  C_8
REMARK    3  A    between atoms: C_1  and  O_14
REMARK    4  A    between atoms: C_1  and  C_17
REMARK    5  A    between atoms: C_17  and  O_18
REMARK    6  A    between atoms: O_18  and  C_22
REMARK                            x       y       z     vdW  Elec       q    Type
REMARK                         _______ _______ _______ _____ _____    ______ ____
ROOT
ATOM      1  C   UNL     1      34.357 -23.628 -15.275  0.00  0.00    +0.216 C 
ENDROOT
BRANCH   1   2
ATOM      2  C   UNL     1      32.882 -23.757 -14.888  0.00  0.00    +0.016 C 
ATOM      3  C   UNL     1      32.020 -22.740 -15.228  0.00  0.00    -0.001 C 
ATOM      4  C   UNL     1      32.474 -24.886 -14.214  0.00  0.00    -0.001 C 
ATOM      5  C   UNL     1      30.675 -22.859 -14.876  0.00  0.00    -0.000 C 
ATOM      6  C   UNL     1      31.129 -25.004 -13.862  0.00  0.00    -0.000 C 
ATOM      7  C   UNL     1      30.230 -23.990 -14.193  0.00  0.00    -0.000 C 
ENDBRANCH   1   2
BRANCH   1   8
ATOM      8  C   UNL     1      34.503 -23.063 -16.689  0.00  0.00    +0.016 C 
ATOM      9  C   UNL     1      35.657 -22.386 -17.012  0.00  0.00    -0.001 C 
ATOM     10  C   UNL     1      33.475 -23.251 -17.583  0.00  0.00    -0.001 C 
ATOM     11  C   UNL     1      35.790 -21.871 -18.301  0.00  0.00    -0.000 C 
ATOM     12  C   UNL     1      33.608 -22.736 -18.873  0.00  0.00    -0.000 C 
ATOM     13  C   UNL     1      34.765 -22.045 -19.232  0.00  0.00    -0.000 C 
ENDBRANCH   1   8
BRANCH   1  14
ATOM     14  O   UNL     1      35.046 -22.775 -14.338  0.00  0.00    -0.370 OA
ATOM     15  H   UNL     1      35.609 -23.316 -13.762  0.00  0.00    +0.212 HD
ENDBRANCH   1  14
BRANCH   1  17
ATOM     16  O   UNL     1      35.165 -25.874 -15.819  0.00  0.00    -0.247 OA
ATOM     17  C   UNL     1      35.169 -24.908 -15.064  0.00  0.00    +0.349 C 
BRANCH  17  18
ATOM     18  O   UNL     1      35.934 -24.814 -13.928  0.00  0.00    -0.452 OA
BRANCH  18  22
ATOM     19  N   UNL     1      38.958 -25.163 -14.584  0.00  0.00    +0.390 N 
ATOM     20  C   UNL     1      37.793 -26.163 -14.685  0.00  0.00    -0.029 C 
ATOM     21  C   UNL     1      39.515 -25.102 -13.159  0.00  0.00    -0.073 C 
ATOM     22  C   UNL     1      36.724 -25.956 -13.614  0.00  0.00    +0.149 C 
ATOM     23  C   UNL     1      38.425 -24.812 -12.138  0.00  0.00    -0.019 C 
ATOM     24  C   UNL     1      37.305 -25.840 -12.210  0.00  0.00    +0.039 C 
ATOM     25  C   UNL     1      40.081 -25.661 -15.508  0.00  0.00    -0.096 C 
ATOM     26  C   UNL     1      38.562 -23.774 -15.081  0.00  0.00    -0.096 C 
ENDBRANCH  18  22
ENDBRANCH  17  18
ENDBRANCH   1  17
TORSDOF 6
ENDMDL
MODEL 2
REMARK VINA RESULT:      -8.9      9.436     12.844
REMARK  Name = 4057
REMARK  6 active torsions:
REMARK  status: ('A' for Active; 'I' for Inactive)
REMARK    1  A    between atoms: C_1  and  C_2
REMARK    2  A    between atoms: C_1  and  C_8
REMARK    3  A    between atoms: C_1  and  O_14
REMARK    4  A    between atoms: C_1  and  C_17
REMARK    5  A    between atoms: C_17  and  O_18
REMARK    6  A    between atoms: O_18  and  C_22
REMARK                            x       y       z     vdW  Elec       q    Type
REMARK                         _______ _______ _______ _____ _____    ______ ____
ROOT
ATOM      1  C   UNL     1      32.877 -13.967 -22.465  0.00  0.00    +0.216 C 
ENDROOT
BRANCH   1   2
ATOM      2  C   UNL     1      33.146 -13.532 -23.908  0.00  0.00    +0.016 C 
ATOM      3  C   UNL     1      32.782 -14.378 -24.930  0.00  0.00    -0.001 C 
ATOM      4  C   UNL     1      33.742 -12.311 -24.127  0.00  0.00    -0.001 C 
ATOM      5  C   UNL     1      33.026 -13.981 -26.244  0.00  0.00    -0.000 C 
ATOM      6  C   UNL     1      33.987 -11.915 -25.442  0.00  0.00    -0.000 C 
ATOM      7  C   UNL     1      33.628 -12.749 -26.501  0.00  0.00    -0.000 C 
ENDBRANCH   1   2
BRANCH   1   8
ATOM      8  C   UNL     1      32.252 -12.827 -21.659  0.00  0.00    +0.016 C 
ATOM      9  C   UNL     1      32.271 -12.903 -20.286  0.00  0.00    -0.001 C 
ATOM     10  C   UNL     1      31.693 -11.769 -22.339  0.00  0.00    -0.001 C 
ATOM     11  C   UNL     1      31.701 -11.863 -19.551  0.00  0.00    -0.000 C 
ATOM     12  C   UNL     1      31.123 -10.729 -21.604  0.00  0.00    -0.000 C 
ATOM     13  C   UNL     1      31.126 -10.777 -20.210  0.00  0.00    -0.000 C 
ENDBRANCH   1   8
BRANCH   1  14
ATOM     14  O   UNL     1      32.003 -15.114 -22.444  0.00  0.00    -0.370 OA
ATOM     15  H   UNL     1      31.079 -14.816 -22.435  0.00  0.00    +0.212 HD
ENDBRANCH   1  14
BRANCH   1  17
ATOM     16  O   UNL     1      34.947 -13.957 -21.159  0.00  0.00    -0.247 OA
ATOM     17  C   UNL     1      34.090 -14.588 -21.768  0.00  0.00    +0.349 C 
BRANCH  17  18
ATOM     18  O   UNL     1      34.068 -15.955 -21.884  0.00  0.00    -0.452 OA
BRANCH  18  22
ATOM     19  N   UNL     1      34.766 -18.976 -21.588  0.00  0.00    +0.390 N 
ATOM     20  C   UNL     1      35.624 -17.724 -21.337  0.00  0.00    -0.029 C 
ATOM     21  C   UNL     1      34.766 -19.361 -23.070  0.00  0.00    -0.073 C 
ATOM     22  C   UNL     1      35.293 -16.566 -22.276  0.00  0.00    +0.149 C 
ATOM     23  C   UNL     1      34.350 -18.198 -23.958  0.00  0.00    -0.019 C 
ATOM     24  C   UNL     1      35.242 -16.984 -23.741  0.00  0.00    +0.039 C 
ATOM     25  C   UNL     1      35.391 -20.136 -20.798  0.00  0.00    -0.096 C 
ATOM     26  C   UNL     1      33.340 -18.803 -21.064  0.00  0.00    -0.096 C 
ENDBRANCH  18  22
ENDBRANCH  17  18
ENDBRANCH   1  17
TORSDOF 6
ENDMDL
MODEL 3
REMARK VINA RESULT:      -8.7      1.525      4.336
REMARK  Name = 4057
REMARK  6 active torsions:
REMARK  status: ('A' for Active; 'I' for Inactive)
REMARK    1  A    between atoms: C_1  and  C_2
REMARK    2  A    between atoms: C_1  and  C_8
REMARK    3  A    between atoms: C_1  and  O_14
REMARK    4  A    between atoms: C_1  and  C_17
REMARK    5  A    between atoms: C_17  and  O_18
REMARK    6  A    between atoms: O_18  and  C_22
REMARK                            x       y       z     vdW  Elec       q    Type
REMARK                         _______ _______ _______ _____ _____    ______ ____
ROOT
ATOM      1  C   UNL     1      34.170 -23.304 -16.855  0.00  0.00    +0.216 C 
ENDROOT
BRANCH   1   2
ATOM      2  C   UNL     1      34.296 -22.382 -18.070  0.00  0.00    +0.016 C 
ATOM      3  C   UNL     1      33.149 -21.972 -18.709  0.00  0.00    -0.001 C 
ATOM      4  C   UNL     1      35.554 -21.998 -18.477  0.00  0.00    -0.001 C 
ATOM      5  C   UNL     1      33.265 -21.131 -19.817  0.00  0.00    -0.000 C 
ATOM      6  C   UNL     1      35.670 -21.158 -19.585  0.00  0.00    -0.000 C 
ATOM      7  C   UNL     1      34.525 -20.724 -20.254  0.00  0.00    -0.000 C 
ENDBRANCH   1   2
BRANCH   1   8
ATOM      8  C   UNL     1      32.807 -23.133 -16.181  0.00  0.00    +0.016 C 
ATOM      9  C   UNL     1      32.760 -23.015 -14.811  0.00  0.00    -0.001 C 
ATOM     10  C   UNL     1      31.680 -23.106 -16.969  0.00  0.00    -0.001 C 
ATOM     11  C   UNL     1      31.518 -22.859 -14.196  0.00  0.00    -0.000 C 
ATOM     12  C   UNL     1      30.438 -22.951 -16.355  0.00  0.00    -0.000 C 
ATOM     13  C   UNL     1      30.356 -22.828 -14.968  0.00  0.00    -0.000 C 
ENDBRANCH   1   8
BRANCH   1  14
ATOM     14  O   UNL     1      34.347 -24.679 -17.251  0.00  0.00    -0.370 OA
ATOM     15  H   UNL     1      34.444 -24.728 -18.216  0.00  0.00    +0.212 HD
ENDBRANCH   1  14
BRANCH   1  17
ATOM     16  O   UNL     1      35.771 -22.144 -15.412  0.00  0.00    -0.247 OA
ATOM     17  C   UNL     1      35.335 -23.195 -15.869  0.00  0.00    +0.349 C 
BRANCH  17  18
ATOM     18  O   UNL     1      35.803 -24.441 -15.534  0.00  0.00    -0.452 OA
BRANCH  18  22
ATOM     19  N   UNL     1      36.754 -24.530 -12.570  0.00  0.00    +0.390 N 
ATOM     20  C   UNL     1      37.314 -23.755 -13.775  0.00  0.00    -0.029 C 
ATOM     21  C   UNL     1      37.285 -25.966 -12.538  0.00  0.00    -0.073 C 
ATOM     22  C   UNL     1      37.158 -24.500 -15.099  0.00  0.00    +0.149 C 
ATOM     23  C   UNL     1      37.031 -26.692 -13.850  0.00  0.00    -0.019 C 
ATOM     24  C   UNL     1      37.639 -25.944 -15.029  0.00  0.00    +0.039 C 
ATOM     25  C   UNL     1      37.236 -23.821 -11.294  0.00  0.00    -0.096 C 
ATOM     26  C   UNL     1      35.226 -24.506 -12.538  0.00  0.00    -0.096 C 
ENDBRANCH  18  22
ENDBRANCH  17  18
ENDBRANCH   1  17
TORSDOF 6
ENDMDL
MODEL 4
REMARK VINA RESULT:      -8.5      2.352      6.136
REMARK  Name = 4057
REMARK  6 active torsions:
REMARK  status: ('A' for Active; 'I' for Inactive)
REMARK    1  A    between atoms: C_1  and  C_2
REMARK    2  A    between atoms: C_1  and  C_8
REMARK    3  A    between atoms: C_1  and  O_14
REMARK    4  A    between atoms: C_1  and  C_17
REMARK    5  A    between atoms: C_17  and  O_18
REMARK    6  A    between atoms: O_18  and  C_22
REMARK                            x       y       z     vdW  Elec       q    Type
REMARK                         _______ _______ _______ _____ _____    ______ ____
ROOT
ATOM      1  C   UNL     1      34.876 -24.371 -14.665  0.00  0.00    +0.216 C 
ENDROOT
BRANCH   1   2
ATOM      2  C   UNL     1      36.219 -24.725 -14.021  0.00  0.00    +0.016 C 
ATOM      3  C   UNL     1      36.738 -23.880 -13.069  0.00  0.00    -0.001 C 
ATOM      4  C   UNL     1      36.857 -25.878 -14.422  0.00  0.00    -0.001 C 
ATOM      5  C   UNL     1      37.961 -24.204 -12.483  0.00  0.00    -0.000 C 
ATOM      6  C   UNL     1      38.081 -26.201 -13.836  0.00  0.00    -0.000 C 
ATOM      7  C   UNL     1      38.633 -25.364 -12.866  0.00  0.00    -0.000 C 
ENDBRANCH   1   2
BRANCH   1   8
ATOM      8  C   UNL     1      35.079 -23.506 -15.910  0.00  0.00    +0.016 C 
ATOM      9  C   UNL     1      34.086 -23.478 -16.862  0.00  0.00    -0.001 C 
ATOM     10  C   UNL     1      36.247 -22.790 -16.031  0.00  0.00    -0.001 C 
ATOM     11  C   UNL     1      34.271 -22.689 -17.997  0.00  0.00    -0.000 C 
ATOM     12  C   UNL     1      36.433 -22.001 -17.167  0.00  0.00    -0.000 C 
ATOM     13  C   UNL     1      35.445 -21.951 -18.150  0.00  0.00    -0.000 C 
ENDBRANCH   1   8
BRANCH   1  14
ATOM     14  O   UNL     1      34.160 -25.572 -15.019  0.00  0.00    -0.370 OA
ATOM     15  H   UNL     1      33.787 -25.476 -15.910  0.00  0.00    +0.212 HD
ENDBRANCH   1  14
BRANCH   1  17
ATOM     16  O   UNL     1      34.065 -23.570 -12.499  0.00  0.00    -0.247 OA
ATOM     17  C   UNL     1      33.859 -23.774 -13.690  0.00  0.00    +0.349 C 
BRANCH  17  18
ATOM     18  O   UNL     1      32.691 -23.460 -14.340  0.00  0.00    -0.452 OA
BRANCH  18  22
ATOM     19  N   UNL     1      29.789 -23.145 -15.426  0.00  0.00    +0.390 N 
ATOM     20  C   UNL     1      30.430 -22.631 -14.125  0.00  0.00    -0.029 C 
ATOM     21  C   UNL     1      29.327 -24.598 -15.280  0.00  0.00    -0.073 C 
ATOM     22  C   UNL     1      31.501 -23.566 -13.567  0.00  0.00    +0.149 C 
ATOM     23  C   UNL     1      30.450 -25.504 -14.801  0.00  0.00    -0.019 C 
ATOM     24  C   UNL     1      31.038 -25.016 -13.484  0.00  0.00    +0.039 C 
ATOM     25  C   UNL     1      28.550 -22.281 -15.709  0.00  0.00    -0.096 C 
ATOM     26  C   UNL     1      30.724 -22.982 -16.624  0.00  0.00    -0.096 C 
ENDBRANCH  18  22
ENDBRANCH  17  18
ENDBRANCH   1  17
TORSDOF 6
ENDMDL
MODEL 5
REMARK VINA RESULT:      -8.5     12.569     16.207
REMARK  Name = 4057
REMARK  6 active torsions:
REMARK  status: ('A' for Active; 'I' for Inactive)
REMARK    1  A    between atoms: C_1  and  C_2
REMARK    2  A    between atoms: C_1  and  C_8
REMARK    3  A    between atoms: C_1  and  O_14
REMARK    4  A    between atoms: C_1  and  C_17
REMARK    5  A    between atoms: C_17  and  O_18
REMARK    6  A    between atoms: O_18  and  C_22
REMARK                            x       y       z     vdW  Elec       q    Type
REMARK                         _______ _______ _______ _____ _____    ______ ____
ROOT
ATOM      1  C   UNL     1      33.436 -12.606 -23.302  0.00  0.00    +0.216 C 
ENDROOT
BRANCH   1   2
ATOM      2  C   UNL     1      33.311 -13.065 -24.757  0.00  0.00    +0.016 C 
ATOM      3  C   UNL     1      33.717 -12.211 -25.755  0.00  0.00    -0.001 C 
ATOM      4  C   UNL     1      32.794 -14.316 -25.010  0.00  0.00    -0.001 C 
ATOM      5  C   UNL     1      33.603 -12.630 -27.081  0.00  0.00    -0.000 C 
ATOM      6  C   UNL     1      32.681 -14.734 -26.336  0.00  0.00    -0.000 C 
ATOM      7  C   UNL     1      33.086 -13.891 -27.372  0.00  0.00    -0.000 C 
ENDBRANCH   1   2
BRANCH   1   8
ATOM      8  C   UNL     1      33.549 -13.805 -22.360  0.00  0.00    +0.016 C 
ATOM      9  C   UNL     1      32.666 -13.904 -21.309  0.00  0.00    -0.001 C 
ATOM     10  C   UNL     1      34.530 -14.740 -22.598  0.00  0.00    -0.001 C 
ATOM     11  C   UNL     1      32.769 -14.998 -20.450  0.00  0.00    -0.000 C 
ATOM     12  C   UNL     1      34.633 -15.835 -21.739  0.00  0.00    -0.000 C 
ATOM     13  C   UNL     1      33.753 -15.963 -20.665  0.00  0.00    -0.000 C 
ENDBRANCH   1   8
BRANCH   1  14
ATOM     14  O   UNL     1      34.589 -11.754 -23.145  0.00  0.00    -0.370 OA
ATOM     15  H   UNL     1      34.773 -11.300 -23.983  0.00  0.00    +0.212 HD
ENDBRANCH   1  14
BRANCH   1  17
ATOM     16  O   UNL     1      31.183 -11.904 -22.650  0.00  0.00    -0.247 OA
ATOM     17  C   UNL     1      32.354 -11.614 -22.869  0.00  0.00    +0.349 C 
BRANCH  17  18
ATOM     18  O   UNL     1      32.883 -10.356 -22.721  0.00  0.00    -0.452 OA
BRANCH  18  22
ATOM     19  N   UNL     1      31.936  -7.402 -22.449  0.00  0.00    +0.390 N 
ATOM     20  C   UNL     1      31.521  -8.495 -23.449  0.00  0.00    -0.029 C 
ATOM     21  C   UNL     1      33.223  -6.702 -22.892  0.00  0.00    -0.073 C 
ATOM     22  C   UNL     1      32.656  -9.455 -23.800  0.00  0.00    +0.149 C 
ATOM     23  C   UNL     1      34.347  -7.695 -23.150  0.00  0.00    -0.019 C 
ATOM     24  C   UNL     1      33.945  -8.738 -24.183  0.00  0.00    +0.039 C 
ATOM     25  C   UNL     1      30.815  -6.351 -22.415  0.00  0.00    -0.096 C 
ATOM     26  C   UNL     1      32.068  -7.950 -21.028  0.00  0.00    -0.096 C 
ENDBRANCH  18  22
ENDBRANCH  17  18
ENDBRANCH   1  17
TORSDOF 6
ENDMDL
MODEL 6
REMARK VINA RESULT:      -8.1      2.361      6.366
REMARK  Name = 4057
REMARK  6 active torsions:
REMARK  status: ('A' for Active; 'I' for Inactive)
REMARK    1  A    between atoms: C_1  and  C_2
REMARK    2  A    between atoms: C_1  and  C_8
REMARK    3  A    between atoms: C_1  and  O_14
REMARK    4  A    between atoms: C_1  and  C_17
REMARK    5  A    between atoms: C_17  and  O_18
REMARK    6  A    between atoms: O_18  and  C_22
REMARK                            x       y       z     vdW  Elec       q    Type
REMARK                         _______ _______ _______ _____ _____    ______ ____
ROOT
ATOM      1  C   UNL     1      34.843 -23.622 -15.000  0.00  0.00    +0.216 C 
ENDROOT
BRANCH   1   2
ATOM      2  C   UNL     1      34.814 -23.097 -16.438  0.00  0.00    +0.016 C 
ATOM      3  C   UNL     1      35.895 -22.384 -16.901  0.00  0.00    -0.001 C 
ATOM      4  C   UNL     1      33.706 -23.359 -17.212  0.00  0.00    -0.001 C 
ATOM      5  C   UNL     1      35.868 -21.906 -18.211  0.00  0.00    -0.000 C 
ATOM      6  C   UNL     1      33.680 -22.880 -18.522  0.00  0.00    -0.000 C 
ATOM      7  C   UNL     1      34.761 -22.154 -19.022  0.00  0.00    -0.000 C 
ENDBRANCH   1   2
BRANCH   1   8
ATOM      8  C   UNL     1      36.056 -24.527 -14.774  0.00  0.00    +0.016 C 
ATOM      9  C   UNL     1      37.082 -24.066 -13.982  0.00  0.00    -0.001 C 
ATOM     10  C   UNL     1      36.074 -25.766 -15.372  0.00  0.00    -0.001 C 
ATOM     11  C   UNL     1      38.188 -24.891 -13.776  0.00  0.00    -0.000 C 
ATOM     12  C   UNL     1      37.180 -26.591 -15.165  0.00  0.00    -0.000 C 
ATOM     13  C   UNL     1      38.237 -26.153 -14.368  0.00  0.00    -0.000 C 
ENDBRANCH   1   8
BRANCH   1  14
ATOM     14  O   UNL     1      34.877 -22.522 -14.068  0.00  0.00    -0.370 OA
ATOM     15  H   UNL     1      34.707 -21.692 -14.540  0.00  0.00    +0.212 HD
ENDBRANCH   1  14
BRANCH   1  17
ATOM     16  O   UNL     1      33.441 -25.359 -13.997  0.00  0.00    -0.247 OA
ATOM     17  C   UNL     1      33.531 -24.269 -14.549  0.00  0.00    +0.349 C 
BRANCH  17  18
ATOM     18  O   UNL     1      32.468 -23.441 -14.812  0.00  0.00    -0.452 OA
BRANCH  18  22
ATOM     19  N   UNL     1      29.449 -23.081 -15.485  0.00  0.00    +0.390 N 
ATOM     20  C   UNL     1      30.281 -22.539 -14.310  0.00  0.00    -0.029 C 
ATOM     21  C   UNL     1      28.978 -24.513 -15.218  0.00  0.00    -0.073 C 
ATOM     22  C   UNL     1      31.399 -23.485 -13.873  0.00  0.00    +0.149 C 
ATOM     23  C   UNL     1      30.137 -25.434 -14.868  0.00  0.00    -0.019 C 
ATOM     24  C   UNL     1      30.919 -24.917 -13.669  0.00  0.00    +0.039 C 
ATOM     25  C   UNL     1      28.203 -22.192 -15.622  0.00  0.00    -0.096 C 
ATOM     26  C   UNL     1      30.206 -22.987 -16.809  0.00  0.00    -0.096 C 
ENDBRANCH  18  22
ENDBRANCH  17  18
ENDBRANCH   1  17
TORSDOF 6
ENDMDL
MODEL 7
REMARK VINA RESULT:      -7.9      7.609     11.689
REMARK  Name = 4057
REMARK  6 active torsions:
REMARK  status: ('A' for Active; 'I' for Inactive)
REMARK    1  A    between atoms: C_1  and  C_2
REMARK    2  A    between atoms: C_1  and  C_8
REMARK    3  A    between atoms: C_1  and  O_14
REMARK    4  A    between atoms: C_1  and  C_17
REMARK    5  A    between atoms: C_17  and  O_18
REMARK    6  A    between atoms: O_18  and  C_22
REMARK                            x       y       z     vdW  Elec       q    Type
REMARK                         _______ _______ _______ _____ _____    ______ ____
ROOT
ATOM      1  C   UNL     1      35.297 -18.103 -21.658  0.00  0.00    +0.216 C 
ENDROOT
BRANCH   1   2
ATOM      2  C   UNL     1      34.961 -18.127 -23.151  0.00  0.00    +0.016 C 
ATOM      3  C   UNL     1      34.316 -19.228 -23.664  0.00  0.00    -0.001 C 
ATOM      4  C   UNL     1      35.318 -17.044 -23.923  0.00  0.00    -0.001 C 
ATOM      5  C   UNL     1      34.010 -19.248 -25.025  0.00  0.00    -0.000 C 
ATOM      6  C   UNL     1      35.011 -17.065 -25.284  0.00  0.00    -0.000 C 
ATOM      7  C   UNL     1      34.357 -18.168 -25.835  0.00  0.00    -0.000 C 
ENDBRANCH   1   2
BRANCH   1   8
ATOM      8  C   UNL     1      34.655 -19.289 -20.935  0.00  0.00    +0.016 C 
ATOM      9  C   UNL     1      33.286 -19.314 -20.796  0.00  0.00    -0.001 C 
ATOM     10  C   UNL     1      35.471 -20.286 -20.451  0.00  0.00    -0.001 C 
ATOM     11  C   UNL     1      32.701 -20.396 -20.138  0.00  0.00    -0.000 C 
ATOM     12  C   UNL     1      34.885 -21.368 -19.793  0.00  0.00    -0.000 C 
ATOM     13  C   UNL     1      33.501 -21.422 -19.636  0.00  0.00    -0.000 C 
ENDBRANCH   1   8
BRANCH   1  14
ATOM     14  O   UNL     1      36.726 -18.135 -21.467  0.00  0.00    -0.370 OA
ATOM     15  H   UNL     1      37.169 -18.006 -22.321  0.00  0.00    +0.212 HD
ENDBRANCH   1  14
BRANCH   1  17
ATOM     16  O   UNL     1      35.309 -16.483 -19.823  0.00  0.00    -0.247 OA
ATOM     17  C   UNL     1      35.001 -16.766 -20.975  0.00  0.00    +0.349 C 
BRANCH  17  18
ATOM     18  O   UNL     1      34.376 -15.907 -21.845  0.00  0.00    -0.452 OA
BRANCH  18  22
ATOM     19  N   UNL     1      33.322 -13.563 -23.603  0.00  0.00    +0.390 N 
ATOM     20  C   UNL     1      34.621 -13.694 -22.788  0.00  0.00    -0.029 C 
ATOM     21  C   UNL     1      32.155 -13.115 -22.720  0.00  0.00    -0.073 C 
ATOM     22  C   UNL     1      34.455 -14.524 -21.517  0.00  0.00    +0.149 C 
ATOM     23  C   UNL     1      31.980 -14.021 -21.511  0.00  0.00    -0.019 C 
ATOM     24  C   UNL     1      33.254 -14.098 -20.681  0.00  0.00    +0.039 C 
ATOM     25  C   UNL     1      33.549 -12.481 -24.671  0.00  0.00    -0.096 C 
ATOM     26  C   UNL     1      32.985 -14.854 -24.349  0.00  0.00    -0.096 C 
ENDBRANCH  18  22
ENDBRANCH  17  18
ENDBRANCH   1  17
TORSDOF 6
ENDMDL
MODEL 8
REMARK VINA RESULT:      -7.9      2.919      5.844
REMARK  Name = 4057
REMARK  6 active torsions:
REMARK  status: ('A' for Active; 'I' for Inactive)
REMARK    1  A    between atoms: C_1  and  C_2
REMARK    2  A    between atoms: C_1  and  C_8
REMARK    3  A    between atoms: C_1  and  O_14
REMARK    4  A    between atoms: C_1  and  C_17
REMARK    5  A    between atoms: C_17  and  O_18
REMARK    6  A    between atoms: O_18  and  C_22
REMARK                            x       y       z     vdW  Elec       q    Type
REMARK                         _______ _______ _______ _____ _____    ______ ____
ROOT
ATOM      1  C   UNL     1      33.959 -22.785 -18.136  0.00  0.00    +0.216 C 
ENDROOT
BRANCH   1   2
ATOM      2  C   UNL     1      35.148 -22.813 -17.172  0.00  0.00    +0.016 C 
ATOM      3  C   UNL     1      36.093 -21.818 -17.260  0.00  0.00    -0.001 C 
ATOM      4  C   UNL     1      35.224 -23.836 -16.253  0.00  0.00    -0.001 C 
ATOM      5  C   UNL     1      37.175 -21.845 -16.381  0.00  0.00    -0.000 C 
ATOM      6  C   UNL     1      36.308 -23.862 -15.374  0.00  0.00    -0.000 C 
ATOM      7  C   UNL     1      37.283 -22.866 -15.437  0.00  0.00    -0.000 C 
ENDBRANCH   1   2
BRANCH   1   8
ATOM      8  C   UNL     1      34.151 -21.708 -19.206  0.00  0.00    +0.016 C 
ATOM      9  C   UNL     1      35.411 -21.509 -19.722  0.00  0.00    -0.001 C 
ATOM     10  C   UNL     1      33.057 -20.979 -19.611  0.00  0.00    -0.001 C 
ATOM     11  C   UNL     1      35.585 -20.527 -20.697  0.00  0.00    -0.000 C 
ATOM     12  C   UNL     1      33.231 -19.998 -20.587  0.00  0.00    -0.000 C 
ATOM     13  C   UNL     1      34.496 -19.771 -21.129  0.00  0.00    -0.000 C 
ENDBRANCH   1   8
BRANCH   1  14
ATOM     14  O   UNL     1      33.797 -24.072 -18.767  0.00  0.00    -0.370 OA
ATOM     15  H   UNL     1      34.472 -24.683 -18.432  0.00  0.00    +0.212 HD
ENDBRANCH   1  14
BRANCH   1  17
ATOM     16  O   UNL     1      31.643 -22.045 -17.855  0.00  0.00    -0.247 OA
ATOM     17  C   UNL     1      32.598 -22.693 -17.443  0.00  0.00    +0.349 C 
BRANCH  17  18
ATOM     18  O   UNL     1      32.579 -23.469 -16.310  0.00  0.00    -0.452 OA
BRANCH  18  22
ATOM     19  N   UNL     1      30.101 -24.622 -14.818  0.00  0.00    +0.390 N 
ATOM     20  C   UNL     1      30.454 -23.173 -15.196  0.00  0.00    -0.029 C 
ATOM     21  C   UNL     1      30.787 -25.038 -13.514  0.00  0.00    -0.073 C 
ATOM     22  C   UNL     1      31.954 -22.889 -15.170  0.00  0.00    +0.149 C 
ATOM     23  C   UNL     1      32.290 -24.814 -13.568  0.00  0.00    -0.019 C 
ATOM     24  C   UNL     1      32.627 -23.363 -13.887  0.00  0.00    +0.039 C 
ATOM     25  C   UNL     1      28.582 -24.689 -14.595  0.00  0.00    -0.096 C 
ATOM     26  C   UNL     1      30.425 -25.599 -15.947  0.00  0.00    -0.096 C 
ENDBRANCH  18  22
ENDBRANCH  17  18
ENDBRANCH   1  17
TORSDOF 6
ENDMDL
MODEL 9
REMARK VINA RESULT:      -7.8      7.625     11.316
REMARK  Name = 4057
REMARK  6 active torsions:
REMARK  status: ('A' for Active; 'I' for Inactive)
REMARK    1  A    between atoms: C_1  and  C_2
REMARK    2  A    between atoms: C_1  and  C_8
REMARK    3  A    between atoms: C_1  and  O_14
REMARK    4  A    between atoms: C_1  and  C_17
REMARK    5  A    between atoms: C_17  and  O_18
REMARK    6  A    between atoms: O_18  and  C_22
REMARK                            x       y       z     vdW  Elec       q    Type
REMARK                         _______ _______ _______ _____ _____    ______ ____
ROOT
ATOM      1  C   UNL     1      34.217 -18.126 -21.488  0.00  0.00    +0.216 C 
ENDROOT
BRANCH   1   2
ATOM      2  C   UNL     1      34.932 -19.293 -20.802  0.00  0.00    +0.016 C 
ATOM      3  C   UNL     1      36.306 -19.293 -20.761  0.00  0.00    -0.001 C 
ATOM      4  C   UNL     1      34.170 -20.299 -20.251  0.00  0.00    -0.001 C 
ATOM      5  C   UNL     1      36.957 -20.356 -20.135  0.00  0.00    -0.000 C 
ATOM      6  C   UNL     1      34.821 -21.362 -19.625  0.00  0.00    -0.000 C 
ATOM      7  C   UNL     1      36.215 -21.390 -19.567  0.00  0.00    -0.000 C 
ENDBRANCH   1   2
BRANCH   1   8
ATOM      8  C   UNL     1      34.426 -18.174 -23.003  0.00  0.00    +0.016 C 
ATOM      9  C   UNL     1      34.308 -19.385 -23.646  0.00  0.00    -0.001 C 
ATOM     10  C   UNL     1      34.725 -17.005 -23.664  0.00  0.00    -0.001 C 
ATOM     11  C   UNL     1      34.497 -19.428 -25.027  0.00  0.00    -0.000 C 
ATOM     12  C   UNL     1      34.915 -17.049 -25.046  0.00  0.00    -0.000 C 
ATOM     13  C   UNL     1      34.802 -18.260 -25.727  0.00  0.00    -0.000 C 
ENDBRANCH   1   8
BRANCH   1  14
ATOM     14  O   UNL     1      32.806 -18.161 -21.191  0.00  0.00    -0.370 OA
ATOM     15  H   UNL     1      32.549 -17.339 -20.744  0.00  0.00    +0.212 HD
ENDBRANCH   1  14
BRANCH   1  17
ATOM     16  O   UNL     1      35.403 -16.552 -20.037  0.00  0.00    -0.247 OA
ATOM     17  C   UNL     1      34.547 -16.757 -20.889  0.00  0.00    +0.349 C 
BRANCH  17  18
ATOM     18  O   UNL     1      33.776 -15.778 -21.466  0.00  0.00    -0.452 OA
BRANCH  18  22
ATOM     19  N   UNL     1      33.272 -13.242 -23.201  0.00  0.00    +0.390 N 
ATOM     20  C   UNL     1      34.473 -13.626 -22.320  0.00  0.00    -0.029 C 
ATOM     21  C   UNL     1      32.153 -12.608 -22.369  0.00  0.00    -0.073 C 
ATOM     22  C   UNL     1      34.084 -14.441 -21.088  0.00  0.00    +0.149 C 
ATOM     23  C   UNL     1      31.744 -13.495 -21.202  0.00  0.00    -0.019 C 
ATOM     24  C   UNL     1      32.931 -13.822 -20.306  0.00  0.00    +0.039 C 
ATOM     25  C   UNL     1      33.755 -12.195 -24.217  0.00  0.00    -0.096 C 
ATOM     26  C   UNL     1      32.753 -14.432 -24.006  0.00  0.00    -0.096 C 
ENDBRANCH  18  22
ENDBRANCH  17  18
ENDBRANCH   1  17
TORSDOF 6
ENDMDL
