REMARK  4 active torsions:
REMARK  status: ('A' for Active; 'I' for Inactive)
REMARK    1  A    between atoms: C_11  and  N_14 
REMARK    2  A    between atoms: C_13  and  C_21 
REMARK       I    between atoms: N_14  and  C_15 
REMARK    3  A    between atoms: C_15  and  C_16 
REMARK    4  A    between atoms: C_16  and  C_17 
ROOT
HETATM    1  C   UNK     0      -1.518   0.114  -8.649  0.00  0.00     0.008 A 
HETATM    2  C   UNK     0      -2.214  -1.096  -8.446  0.00  0.00     0.001 A 
HETATM    3  C   UNK     0      -1.508  -2.303  -8.254  0.00  0.00     0.001 A 
HETATM    4  C   UNK     0      -0.099  -2.315  -8.275  0.00  0.00     0.013 A 
HETATM    5  C   UNK     0       0.584  -1.101  -8.485  0.00  0.00    -0.019 A 
HETATM    6  C   UNK     0      -0.110   0.098  -8.666  0.00  0.00    -0.043 A 
HETATM    7  C   UNK     0       1.945  -0.822  -8.552  0.00  0.00    -0.016 A 
HETATM    8  C   UNK     0       2.124   0.547  -8.783  0.00  0.00    -0.032 A 
HETATM    9  C   UNK     0       0.811   1.230  -8.864  0.00  0.00     0.080 A 
HETATM   10  C   UNK     0       3.040  -1.690  -8.403  0.00  0.00     0.042 A 
HETATM   11  C   UNK     0       4.355  -1.175  -8.487  0.00  0.00     0.036 A 
HETATM   12  C   UNK     0       4.533   0.213  -8.712  0.00  0.00     0.042 A 
HETATM   13  C   UNK     0       3.431   1.096  -8.875  0.00  0.00    -0.016 A 
ENDROOT
BRANCH  13  14
HETATM   14  C   UNK     0       3.652   2.481  -9.110  0.00  0.00    -0.023 A 
HETATM   15  C   UNK     0       3.124   3.119 -10.259  0.00  0.00     0.029 A 
HETATM   16  C   UNK     0       3.336   4.495 -10.453  0.00  0.00     0.088 A 
HETATM   17  N   UNK     0       4.062   5.203  -9.552  0.00  0.00    -0.375 N 
HETATM   18  C   UNK     0       4.608   4.629  -8.449  0.00  0.00     0.088 A 
HETATM   19  HN  UNK     0       4.203   6.201  -9.708  1.00  0.00     0.164 HD
HETATM   20  C   UNK     0       4.418   3.255  -8.205  0.00  0.00     0.029 A 
ENDBRANCH  13  14
BRANCH  11  21
HETATM   21  N   UNK     0       5.471  -1.948  -8.300  0.00  0.00    -0.327 N 
HETATM   22  C   UNK     0       5.643  -3.273  -8.588  0.00  0.00     0.223 C 
HETATM   23  O   UNK     0       4.800  -3.934  -9.241  0.00  0.00    -0.273 OA
HETATM   24  H   UNK     0       6.244  -1.494  -7.926  0.00  0.00     0.169 HD
BRANCH  22  25
HETATM   25  C   UNK     0       6.871  -3.960  -8.132  0.00  0.00     0.118 C 
BRANCH  25  26
HETATM   26  C   UNK     0       6.756  -4.397  -6.651  0.00  0.00     0.124 C 
HETATM   27 Cl   UNK     0       8.252  -5.132  -6.086  0.00  0.00    -0.130 Cl
ENDBRANCH  25  26
ENDBRANCH  22  25
ENDBRANCH  11  21
TORSDOF 4
