REMARK  2 active torsions:
REMARK  status: ('A' for Active; 'I' for Inactive)
REMARK    1  A    between atoms: C_10  and  C_17 
REMARK    2  A    between atoms: C_12  and  N_14 
ROOT
HETATM    1  C   UNK     0      -6.669   0.192   5.160  0.00  0.00     0.013 A 
HETATM    2  C   UNK     0      -6.543   1.015   6.299  0.00  0.00     0.001 A 
HETATM    3  C   UNK     0      -5.385   1.800   6.491  0.00  0.00     0.001 A 
HETATM    4  C   UNK     0      -4.335   1.767   5.550  0.00  0.00     0.008 A 
HETATM    5  C   UNK     0      -4.468   0.942   4.416  0.00  0.00    -0.043 A 
HETATM    6  C   UNK     0      -5.617   0.167   4.225  0.00  0.00    -0.019 A 
HETATM    7  C   UNK     0      -3.510   0.760   3.319  0.00  0.00     0.080 A 
HETATM    8  C   UNK     0      -4.238  -0.200   2.460  0.00  0.00    -0.032 A 
HETATM    9  C   UNK     0      -5.468  -0.546   3.037  0.00  0.00    -0.016 A 
HETATM   10  C   UNK     0      -3.822  -0.779   1.234  0.00  0.00    -0.016 A 
HETATM   11  C   UNK     0      -4.668  -1.752   0.642  0.00  0.00     0.042 A 
HETATM   12  C   UNK     0      -5.892  -2.123   1.244  0.00  0.00     0.027 A 
HETATM   13  C   UNK     0      -6.310  -1.502   2.440  0.00  0.00     0.042 A 
ENDROOT
BRANCH  10  14
HETATM   14  C   UNK     0      -2.582  -0.437   0.627  0.00  0.00    -0.023 A 
HETATM   15  C   UNK     0      -1.597  -1.424   0.404  0.00  0.00     0.029 A 
HETATM   16  C   UNK     0      -0.357  -1.063  -0.156  0.00  0.00     0.090 A 
HETATM   17  N   UNK     0      -0.084   0.236  -0.493  0.00  0.00    -0.371 N 
HETATM   18  C   UNK     0      -1.033   1.205  -0.302  0.00  0.00     0.090 A 
HETATM   19  C   UNK     0       1.190   0.577  -1.077  0.00  0.00     0.154 C 
HETATM   20  C   UNK     0      -2.291   0.891   0.244  0.00  0.00     0.029 A 
ENDBRANCH  10  14
BRANCH  12  21
HETATM   21  N   UNK     0      -6.654  -3.087   0.688  0.00  0.00    -0.399 N 
HETATM   22  H   UNK     0      -6.365  -3.526  -0.129  0.00  0.00     0.156 HD
HETATM   23  H   UNK     0      -7.489  -3.350   1.106  0.00  0.00     0.156 HD
ENDBRANCH  12  21
TORSDOF 2
