REMARK  4 active torsions:
REMARK  status: ('A' for Active; 'I' for Inactive)
REMARK    1  A    between atoms: C_11  and  N_14 
REMARK    2  A    between atoms: C_13  and  C_21 
REMARK       I    between atoms: N_14  and  C_15 
REMARK    3  A    between atoms: C_15  and  C_16 
REMARK    4  A    between atoms: C_16  and  C_17 
ROOT
HETATM    1  C   UNK     0      -3.008  -0.002  -4.222  0.00  0.00     0.016 A 
HETATM    2  C   UNK     0      -4.110  -0.767  -3.784  0.00  0.00     0.001 A 
HETATM    3  C   UNK     0      -4.030  -2.177  -3.735  0.00  0.00     0.001 A 
HETATM    4  C   UNK     0      -2.844  -2.842  -4.114  0.00  0.00     0.013 A 
HETATM    5  C   UNK     0      -1.746  -2.067  -4.537  0.00  0.00    -0.011 A 
HETATM    6  C   UNK     0      -1.830  -0.674  -4.599  0.00  0.00     0.026 A 
HETATM    7  C   UNK     0      -0.464  -2.429  -4.954  0.00  0.00    -0.008 A 
HETATM    8  C   UNK     0       0.234  -1.270  -5.315  0.00  0.00     0.037 A 
HETATM    9  C   UNK     0      -0.614  -0.174  -5.068  0.00  0.00     0.195 A 
HETATM   10  C   UNK     0       0.135  -3.696  -5.021  0.00  0.00     0.043 A 
HETATM   11  C   UNK     0       1.467  -3.811  -5.486  0.00  0.00     0.036 A 
HETATM   12  C   UNK     0       2.157  -2.635  -5.871  0.00  0.00     0.043 A 
HETATM   13  C   UNK     0       1.561  -1.347  -5.806  0.00  0.00    -0.009 A 
HETATM   14  O   UNK     0      -0.350   1.042  -5.209  0.00  0.00    -0.287 OA
ENDROOT
BRANCH  13  15
HETATM   15  C   UNK     0       2.287  -0.202  -6.238  0.00  0.00    -0.022 A 
HETATM   16  C   UNK     0       1.784   0.635  -7.263  0.00  0.00     0.029 A 
HETATM   17  C   UNK     0       2.531   1.752  -7.678  0.00  0.00     0.088 A 
HETATM   18  N   UNK     0       3.732   2.013  -7.102  0.00  0.00    -0.375 N 
HETATM   19  C   UNK     0       4.253   1.236  -6.119  0.00  0.00     0.088 A 
HETATM   20  HN  UNK     0       4.263   2.824  -7.420  1.00  0.00     0.164 HD
HETATM   21  C   UNK     0       3.540   0.113  -5.661  0.00  0.00     0.029 A 
ENDBRANCH  13  15
BRANCH  11  22
HETATM   22  N   UNK     0       2.146  -4.997  -5.562  0.00  0.00    -0.327 N 
HETATM   23  C   UNK     0       1.638  -6.246  -5.789  0.00  0.00     0.223 C 
HETATM   24  O   UNK     0       0.428  -6.444  -6.051  0.00  0.00    -0.273 OA
HETATM   25  H   UNK     0       3.110  -4.940  -5.466  0.00  0.00     0.169 HD
BRANCH  23  26
HETATM   26  C   UNK     0       2.541  -7.416  -5.769  0.00  0.00     0.118 C 
BRANCH  26  27
HETATM   27  C   UNK     0       2.712  -7.995  -4.344  0.00  0.00     0.124 C 
HETATM   28 Cl   UNK     0       3.868  -9.323  -4.332  0.00  0.00    -0.130 Cl
ENDBRANCH  26  27
ENDBRANCH  23  26
ENDBRANCH  11  22
TORSDOF 4
